data_DBA-COF_2
_audit_creation_date              0000-00-00
_audit_creation_method            'LanYouShi'
_symmetry_space_group_name_H-M    'P1'
_cell_length_a                    40.6220016
_cell_length_b                    40.6220016
_cell_length_c                    3.5438001
_cell_angle_alpha                 90.0000000
_cell_angle_beta                  90.0000000
_cell_angle_gamma                 120.0000000
loop_
_atom_site_label
_atom_site_type_symbol
_atom_site_fract_x
_atom_site_fract_y
_atom_site_fract_z
_atom_site_U_iso_or_equiv
_atom_site_adp_type
_atom_site_occupancy
        C1          C  0.8567040  0.4452880  0.4999950    0.00000       Uiso       1.00
        C2          C  0.5547100  0.4114160  0.4999950    0.00000       Uiso       1.00
        C3          C  0.5885830  0.1432940  0.4999950    0.00000       Uiso       1.00
        C4          C  0.1432940  0.5547100  0.4999950    0.00000       Uiso       1.00
        C5          C  0.4452880  0.5885830  0.4999950    0.00000       Uiso       1.00
        C6          C  0.4114160  0.8567040  0.4999950    0.00000       Uiso       1.00
        C7          C  0.4452880  0.8567040  0.4999950    0.00000       Uiso       1.00
        C8          C  0.4114160  0.5547100  0.4999950    0.00000       Uiso       1.00
        C9          C  0.1432940  0.5885830  0.4999950    0.00000       Uiso       1.00
       C10          C  0.5547100  0.1432940  0.4999950    0.00000       Uiso       1.00
       C11          C  0.5885830  0.4452880  0.4999950    0.00000       Uiso       1.00
       C12          C  0.8567040  0.4114160  0.4999950    0.00000       Uiso       1.00
       C13          C  0.8229900  0.4462680  0.4999950    0.00000       Uiso       1.00
       C14          C  0.5537310  0.3767220  0.4999950    0.00000       Uiso       1.00
       C15          C  0.6232770  0.1770090  0.4999950    0.00000       Uiso       1.00
       C16          C  0.1770090  0.5537310  0.4999950    0.00000       Uiso       1.00
       C17          C  0.4462680  0.6232770  0.4999950    0.00000       Uiso       1.00
       C18          C  0.3767220  0.8229900  0.4999950    0.00000       Uiso       1.00
       C19          C  0.4462680  0.8229900  0.4999950    0.00000       Uiso       1.00
       C20          C  0.3767220  0.5537310  0.4999950    0.00000       Uiso       1.00
       C21          C  0.1770090  0.6232770  0.4999950    0.00000       Uiso       1.00
       C22          C  0.5537310  0.1770090  0.4999950    0.00000       Uiso       1.00
       C23          C  0.6232770  0.4462680  0.4999950    0.00000       Uiso       1.00
       C24          C  0.8229900  0.3767220  0.4999950    0.00000       Uiso       1.00
       C25          C  0.7532140  0.4124100  0.4999950    0.00000       Uiso       1.00
       C26          C  0.5875890  0.3408040  0.4999950    0.00000       Uiso       1.00
       C27          C  0.6591950  0.2467850  0.4999950    0.00000       Uiso       1.00
       C28          C  0.2467850  0.5875890  0.4999950    0.00000       Uiso       1.00
       C29          C  0.4124100  0.6591950  0.4999950    0.00000       Uiso       1.00
       C30          C  0.3408040  0.7532140  0.4999950    0.00000       Uiso       1.00
       C31          C  0.4124100  0.7532140  0.4999950    0.00000       Uiso       1.00
       C32          C  0.3408040  0.5875890  0.4999950    0.00000       Uiso       1.00
       C33          C  0.2467850  0.6591950  0.4999950    0.00000       Uiso       1.00
       C34          C  0.5875890  0.2467850  0.4999950    0.00000       Uiso       1.00
       C35          C  0.6591950  0.4124100  0.4999950    0.00000       Uiso       1.00
       C36          C  0.7532140  0.3408040  0.4999950    0.00000       Uiso       1.00
       C37          C  0.7237000  0.4126900  0.4999950    0.00000       Uiso       1.00
       C38          C  0.5873090  0.3110100  0.4999950    0.00000       Uiso       1.00
       C39          C  0.6889890  0.2762990  0.4999950    0.00000       Uiso       1.00
       C40          C  0.2762990  0.5873090  0.4999950    0.00000       Uiso       1.00
       C41          C  0.4126900  0.6889890  0.4999950    0.00000       Uiso       1.00
       C42          C  0.3110100  0.7237000  0.4999950    0.00000       Uiso       1.00
       C43          C  0.4126890  0.7237000  0.4999950    0.00000       Uiso       1.00
       C44          C  0.3110100  0.5873090  0.4999950    0.00000       Uiso       1.00
       C45          C  0.2762990  0.6889890  0.4999950    0.00000       Uiso       1.00
       C46          C  0.5873090  0.2762990  0.4999950    0.00000       Uiso       1.00
       C47          C  0.6889890  0.4126900  0.4999950    0.00000       Uiso       1.00
       C48          C  0.7237000  0.3110100  0.4999950    0.00000       Uiso       1.00
       C49          C  0.7883260  0.4116480  0.4999950    0.00000       Uiso       1.00
       C50          C  0.5883510  0.3766780  0.4999950    0.00000       Uiso       1.00
       C51          C  0.6233210  0.2116730  0.4999950    0.00000       Uiso       1.00
       C52          C  0.2116730  0.5883510  0.4999950    0.00000       Uiso       1.00
       C53          C  0.4116480  0.6233210  0.4999950    0.00000       Uiso       1.00
       C54          C  0.3766780  0.7883260  0.4999950    0.00000       Uiso       1.00
       C55          C  0.4116480  0.7883260  0.4999950    0.00000       Uiso       1.00
       C56          C  0.3766780  0.5883510  0.4999950    0.00000       Uiso       1.00
       C57          C  0.2116730  0.6233210  0.4999950    0.00000       Uiso       1.00
       C58          C  0.5883510  0.2116730  0.4999950    0.00000       Uiso       1.00
       C59          C  0.6233210  0.4116480  0.4999950    0.00000       Uiso       1.00
       C60          C  0.7883260  0.3766780  0.4999950    0.00000       Uiso       1.00
       B61          B  0.9154700  0.4577350  0.4999950    0.00000       Uiso       1.00
       B62          B  0.5422640  0.4577350  0.4999950    0.00000       Uiso       1.00
       B63          B  0.5422640  0.0845290  0.4999950    0.00000       Uiso       1.00
       B64          B  0.0845290  0.5422640  0.4999950    0.00000       Uiso       1.00
       B65          B  0.4577350  0.5422640  0.4999950    0.00000       Uiso       1.00
       B66          B  0.4577350  0.9154701  0.4999950    0.00000       Uiso       1.00
       C67          C  0.0399760  0.5199870  0.4999950    0.00000       Uiso       1.00
       C68          C  0.4800110  0.5199870  0.4999950    0.00000       Uiso       1.00
       C69          C  0.4800110  0.9600230  0.4999950    0.00000       Uiso       1.00
       C70          C  0.9600230  0.4800110  0.4999950    0.00000       Uiso       1.00
       C71          C  0.5199870  0.4800110  0.4999950    0.00000       Uiso       1.00
       C72          C  0.5199870  0.0399760  0.4999950    0.00000       Uiso       1.00
       C73          C  0.0198760  0.5397920  0.4999950    0.00000       Uiso       1.00
       C74          C  0.4602070  0.4800830  0.4999950    0.00000       Uiso       1.00
       C75          C  0.5199160  0.9801220  0.4999950    0.00000       Uiso       1.00
       C76          C  0.9801220  0.4602070  0.4999950    0.00000       Uiso       1.00
       C77          C  0.5397920  0.5199160  0.4999950    0.00000       Uiso       1.00
       C78          C  0.4800830  0.0198760  0.4999950    0.00000       Uiso       1.00
       C79          C  0.5397920  0.0198760  0.4999950    0.00000       Uiso       1.00
       C80          C  0.4800830  0.4602070  0.4999950    0.00000       Uiso       1.00
       C81          C  0.9801220  0.5199160  0.4999950    0.00000       Uiso       1.00
       C82          C  0.4602070  0.9801220  0.4999950    0.00000       Uiso       1.00
       C83          C  0.5199160  0.5397920  0.4999950    0.00000       Uiso       1.00
       C84          C  0.0198760  0.4800830  0.4999950    0.00000       Uiso       1.00
       H85          H  0.0350370  0.5706530  0.4999950    0.00000       Uiso       1.00
       H86          H  0.4293460  0.4643820  0.4999950    0.00000       Uiso       1.00
       H87          H  0.5356160  0.9649620  0.4999950    0.00000       Uiso       1.00
       H88          H  0.9649620  0.4293460  0.4999950    0.00000       Uiso       1.00
       H89          H  0.5706530  0.5356160  0.4999950    0.00000       Uiso       1.00
       H90          H  0.4643830  0.0350370  0.4999950    0.00000       Uiso       1.00
       H91          H  0.5706530  0.0350370  0.4999950    0.00000       Uiso       1.00
       H92          H  0.4643830  0.4293460  0.4999950    0.00000       Uiso       1.00
       H93          H  0.9649620  0.5356160  0.4999950    0.00000       Uiso       1.00
       H94          H  0.4293460  0.9649620  0.4999950    0.00000       Uiso       1.00
       H95          H  0.5356160  0.5706530  0.4999950    0.00000       Uiso       1.00
       H96          H  0.0350370  0.4643820  0.4999950    0.00000       Uiso       1.00
       H97          H  0.8239770  0.4733750  0.4999950    0.00000       Uiso       1.00
       H98          H  0.5266240  0.3506020  0.4999950    0.00000       Uiso       1.00
       H99          H  0.6493970  0.1760220  0.4999950    0.00000       Uiso       1.00
      H100          H  0.1760220  0.5266240  0.4999950    0.00000       Uiso       1.00
      H101          H  0.4733750  0.6493970  0.4999950    0.00000       Uiso       1.00
      H102          H  0.3506020  0.8239770  0.4999950    0.00000       Uiso       1.00
      H103          H  0.4733750  0.8239770  0.4999950    0.00000       Uiso       1.00
      H104          H  0.3506020  0.5266240  0.4999950    0.00000       Uiso       1.00
      H105          H  0.1760210  0.6493970  0.4999950    0.00000       Uiso       1.00
      H106          H  0.5266240  0.1760220  0.4999950    0.00000       Uiso       1.00
      H107          H  0.6493970  0.4733750  0.4999950    0.00000       Uiso       1.00
      H108          H  0.8239770  0.3506020  0.4999950    0.00000       Uiso       1.00
      O109          O  0.8928450  0.4767050  0.4999950    0.00000       Uiso       1.00
      O110          O  0.5232930  0.4161400  0.4999950    0.00000       Uiso       1.00
      O111          O  0.5838590  0.1071530  0.4999950    0.00000       Uiso       1.00
      O112          O  0.1071530  0.5232930  0.4999950    0.00000       Uiso       1.00
      O113          O  0.4767050  0.5838590  0.4999950    0.00000       Uiso       1.00
      O114          O  0.4161400  0.8928450  0.4999950    0.00000       Uiso       1.00
      O115          O  0.4767050  0.8928450  0.4999950    0.00000       Uiso       1.00
      O116          O  0.4161400  0.5232930  0.4999950    0.00000       Uiso       1.00
      O117          O  0.1071530  0.5838590  0.4999950    0.00000       Uiso       1.00
      O118          O  0.5232930  0.1071530  0.4999950    0.00000       Uiso       1.00
      O119          O  0.5838590  0.4767050  0.4999950    0.00000       Uiso       1.00
      O120          O  0.8928450  0.4161400  0.4999950    0.00000       Uiso       1.00
