data_DCuPc-APDI-COF
_audit_creation_date              0000-00-00
_audit_creation_method            'LanYouShi'
_symmetry_space_group_name_H-M    'P1'
_cell_length_a                    40.6129990
_cell_length_b                    40.6129990
_cell_length_c                    3.5218000
_cell_angle_alpha                 90.0000000
_cell_angle_beta                  90.0000000
_cell_angle_gamma                 90.0000000
loop_
_atom_site_label
_atom_site_type_symbol
_atom_site_fract_x
_atom_site_fract_y
_atom_site_fract_z
_atom_site_U_iso_or_equiv
_atom_site_adp_type
_atom_site_occupancy
        C1          C  0.4827050  0.6608710  0.5000020    0.00000       Uiso       1.00
        C2          C  0.5354000  0.6313790  0.5000020    0.00000       Uiso       1.00
        C3          C  0.5172080  0.6017650  0.5000020    0.00000       Uiso       1.00
        C4          C  0.5271220  0.5689680  0.5000020    0.00000       Uiso       1.00
        C5          C  0.5172950  0.3391290  0.5000020    0.00000       Uiso       1.00
        C6          C  0.4646000  0.3686210  0.5000020    0.00000       Uiso       1.00
        C7          C  0.4827920  0.3982360  0.5000020    0.00000       Uiso       1.00
        C8          C  0.4728780  0.4310320  0.5000020    0.00000       Uiso       1.00
        C9          C  0.3391290  0.4827050  0.5000020    0.00000       Uiso       1.00
       C10          C  0.3686210  0.5354000  0.5000020    0.00000       Uiso       1.00
       C11          C  0.3982360  0.5172080  0.5000020    0.00000       Uiso       1.00
       C12          C  0.4310320  0.5271220  0.5000020    0.00000       Uiso       1.00
       C13          C  0.6608710  0.5172950  0.5000020    0.00000       Uiso       1.00
       C14          C  0.6313790  0.4646000  0.5000020    0.00000       Uiso       1.00
       C15          C  0.6017650  0.4827920  0.5000020    0.00000       Uiso       1.00
       C16          C  0.5689680  0.4728780  0.5000020    0.00000       Uiso       1.00
       C17          C  0.5172950  0.6608710  0.5000020    0.00000       Uiso       1.00
       C18          C  0.4646000  0.6313790  0.5000020    0.00000       Uiso       1.00
       C19          C  0.4827920  0.6017650  0.5000020    0.00000       Uiso       1.00
       C20          C  0.4728780  0.5689680  0.5000020    0.00000       Uiso       1.00
       C21          C  0.4827050  0.3391290  0.5000020    0.00000       Uiso       1.00
       C22          C  0.5354000  0.3686210  0.5000020    0.00000       Uiso       1.00
       C23          C  0.5172080  0.3982360  0.5000020    0.00000       Uiso       1.00
       C24          C  0.5271220  0.4310320  0.5000020    0.00000       Uiso       1.00
       C25          C  0.6608710  0.4827050  0.5000020    0.00000       Uiso       1.00
       C26          C  0.6313790  0.5354000  0.5000020    0.00000       Uiso       1.00
       C27          C  0.6017650  0.5172080  0.5000020    0.00000       Uiso       1.00
       C28          C  0.5689680  0.5271220  0.5000020    0.00000       Uiso       1.00
       C29          C  0.3391290  0.5172950  0.5000020    0.00000       Uiso       1.00
       C30          C  0.3686210  0.4646000  0.5000020    0.00000       Uiso       1.00
       C31          C  0.3982360  0.4827920  0.5000020    0.00000       Uiso       1.00
       C32          C  0.4310320  0.4728780  0.5000020    0.00000       Uiso       1.00
       O33          O  0.5291050  0.6918520  0.5000020    0.00000       Uiso       1.00
       O34          O  0.4708950  0.3081490  0.5000020    0.00000       Uiso       1.00
       O35          O  0.3081490  0.5291050  0.5000020    0.00000       Uiso       1.00
       O36          O  0.6918520  0.4708950  0.5000020    0.00000       Uiso       1.00
       O37          O  0.4708950  0.6918520  0.5000020    0.00000       Uiso       1.00
       O38          O  0.5291050  0.3081490  0.5000020    0.00000       Uiso       1.00
       O39          O  0.6918520  0.5291050  0.5000020    0.00000       Uiso       1.00
       O40          O  0.3081490  0.4708950  0.5000020    0.00000       Uiso       1.00
       H41          H  0.5605300  0.6317410  0.5000020    0.00000       Uiso       1.00
       H42          H  0.4394700  0.3682590  0.5000020    0.00000       Uiso       1.00
       H43          H  0.3682590  0.5605300  0.5000020    0.00000       Uiso       1.00
       H44          H  0.6317410  0.4394700  0.5000020    0.00000       Uiso       1.00
       H45          H  0.4394700  0.6317410  0.5000020    0.00000       Uiso       1.00
       H46          H  0.5605300  0.3682590  0.5000020    0.00000       Uiso       1.00
       H47          H  0.6317410  0.5605300  0.5000020    0.00000       Uiso       1.00
       H48          H  0.3682590  0.4394700  0.5000020    0.00000       Uiso       1.00
       N49          N  0.5586660  0.5586660  0.5000020    0.00000       Uiso       1.00
       N50          N  0.4413350  0.4413350  0.5000020    0.00000       Uiso       1.00
       N51          N  0.4413350  0.5586660  0.5000020    0.00000       Uiso       1.00
       N52          N  0.5586660  0.4413350  0.5000020    0.00000       Uiso       1.00
       B53          B  0.5000000  0.7121910  0.5000020    0.00000       Uiso       1.00
       B54          B  0.5000000  0.2878090  0.5000020    0.00000       Uiso       1.00
       B55          B  0.2878090  0.5000000  0.5000020    0.00000       Uiso       1.00
       B56          B  0.7121910  0.5000000  0.5000020    0.00000       Uiso       1.00
       C57          C  0.9824020  0.4695910  0.5000020    0.00000       Uiso       1.00
       C58          C  0.0364910  0.5597890  0.5000020    0.00000       Uiso       1.00
       C59          C  0.0708890  0.5594170  0.5000020    0.00000       Uiso       1.00
       C60          C  0.0887970  0.5295870  0.5000020    0.00000       Uiso       1.00
       C61          C  0.1239250  0.4715660  0.5000020    0.00000       Uiso       1.00
       H62          H  0.0260360  0.5825240  0.5000020    0.00000       Uiso       1.00
       H63          H  0.0829810  0.5815730  0.5000020    0.00000       Uiso       1.00
       O64          O  0.1362950  0.4434300  0.5000020    0.00000       Uiso       1.00
       C65          C  0.8015811  0.5290120  0.5000020    0.00000       Uiso       1.00
       C66          C  0.7668460  0.5294800  0.5000020    0.00000       Uiso       1.00
       H67          H  0.8109890  0.5519260  0.5000020    0.00000       Uiso       1.00
       H68          H  0.7546070  0.5516370  0.5000020    0.00000       Uiso       1.00
       C69          C  0.0175980  0.5304090  0.5000020    0.00000       Uiso       1.00
       C70          C  0.9635090  0.4402110  0.5000020    0.00000       Uiso       1.00
       C71          C  0.9291120  0.4405830  0.5000020    0.00000       Uiso       1.00
       C72          C  0.9112040  0.4704130  0.5000020    0.00000       Uiso       1.00
       C73          C  0.8760751  0.5284350  0.5000020    0.00000       Uiso       1.00
       H74          H  0.9739640  0.4174770  0.5000020    0.00000       Uiso       1.00
       H75          H  0.9170190  0.4184270  0.5000020    0.00000       Uiso       1.00
       O76          O  0.8637060  0.5565700  0.5000020    0.00000       Uiso       1.00
       C77          C  0.1984200  0.4709880  0.5000020    0.00000       Uiso       1.00
       C78          C  0.2331550  0.4705200  0.5000020    0.00000       Uiso       1.00
       H79          H  0.1890110  0.4480750  0.5000020    0.00000       Uiso       1.00
       H80          H  0.2453930  0.4483640  0.5000020    0.00000       Uiso       1.00
       C81          C  0.5304090  0.9824020  0.5000020    0.00000       Uiso       1.00
       C82          C  0.4402110  0.0364910  0.5000020    0.00000       Uiso       1.00
       C83          C  0.4405830  0.0708890  0.5000020    0.00000       Uiso       1.00
       C84          C  0.4704130  0.0887970  0.5000020    0.00000       Uiso       1.00
       C85          C  0.5284350  0.1239250  0.5000020    0.00000       Uiso       1.00
       H86          H  0.4174770  0.0260360  0.5000020    0.00000       Uiso       1.00
       H87          H  0.4184270  0.0829810  0.5000020    0.00000       Uiso       1.00
       O88          O  0.5565700  0.1362950  0.5000020    0.00000       Uiso       1.00
       C89          C  0.4709880  0.8015811  0.5000020    0.00000       Uiso       1.00
       C90          C  0.4705200  0.7668460  0.5000020    0.00000       Uiso       1.00
       H91          H  0.4480750  0.8109890  0.5000020    0.00000       Uiso       1.00
       H92          H  0.4483640  0.7546070  0.5000020    0.00000       Uiso       1.00
       C93          C  0.4695910  0.0175980  0.5000020    0.00000       Uiso       1.00
       C94          C  0.5597890  0.9635090  0.5000020    0.00000       Uiso       1.00
       C95          C  0.5594170  0.9291120  0.5000020    0.00000       Uiso       1.00
       C96          C  0.5295870  0.9112040  0.5000020    0.00000       Uiso       1.00
       C97          C  0.4715660  0.8760751  0.5000020    0.00000       Uiso       1.00
       H98          H  0.5825240  0.9739640  0.5000020    0.00000       Uiso       1.00
       H99          H  0.5815730  0.9170190  0.5000020    0.00000       Uiso       1.00
      O100          O  0.4434300  0.8637060  0.5000020    0.00000       Uiso       1.00
      C101          C  0.5290120  0.1984200  0.5000020    0.00000       Uiso       1.00
      C102          C  0.5294800  0.2331550  0.5000020    0.00000       Uiso       1.00
      H103          H  0.5519260  0.1890110  0.5000020    0.00000       Uiso       1.00
      H104          H  0.5516370  0.2453930  0.5000020    0.00000       Uiso       1.00
      C105          C  0.0175980  0.4695910  0.5000020    0.00000       Uiso       1.00
      C106          C  0.9635090  0.5597890  0.5000020    0.00000       Uiso       1.00
      C107          C  0.9291120  0.5594170  0.5000020    0.00000       Uiso       1.00
      C108          C  0.9112040  0.5295870  0.5000020    0.00000       Uiso       1.00
      C109          C  0.8760751  0.4715660  0.5000020    0.00000       Uiso       1.00
      H110          H  0.9739640  0.5825240  0.5000020    0.00000       Uiso       1.00
      H111          H  0.9170190  0.5815730  0.5000020    0.00000       Uiso       1.00
      O112          O  0.8637060  0.4434300  0.5000020    0.00000       Uiso       1.00
      C113          C  0.1984200  0.5290120  0.5000020    0.00000       Uiso       1.00
      C114          C  0.2331550  0.5294800  0.5000020    0.00000       Uiso       1.00
      H115          H  0.1890110  0.5519260  0.5000020    0.00000       Uiso       1.00
      H116          H  0.2453930  0.5516370  0.5000020    0.00000       Uiso       1.00
      C117          C  0.9824020  0.5304090  0.5000020    0.00000       Uiso       1.00
      C118          C  0.0364910  0.4402110  0.5000020    0.00000       Uiso       1.00
      C119          C  0.0708890  0.4405830  0.5000020    0.00000       Uiso       1.00
      C120          C  0.0887970  0.4704130  0.5000020    0.00000       Uiso       1.00
      C121          C  0.1239250  0.5284350  0.5000020    0.00000       Uiso       1.00
      H122          H  0.0260360  0.4174770  0.5000020    0.00000       Uiso       1.00
      H123          H  0.0829810  0.4184270  0.5000020    0.00000       Uiso       1.00
      O124          O  0.1362950  0.5565700  0.5000020    0.00000       Uiso       1.00
      C125          C  0.8015811  0.4709880  0.5000020    0.00000       Uiso       1.00
      C126          C  0.7668460  0.4705200  0.5000020    0.00000       Uiso       1.00
      H127          H  0.8109890  0.4480750  0.5000020    0.00000       Uiso       1.00
      H128          H  0.7546070  0.4483640  0.5000020    0.00000       Uiso       1.00
      C129          C  0.4695910  0.9824020  0.5000020    0.00000       Uiso       1.00
      C130          C  0.5597890  0.0364910  0.5000020    0.00000       Uiso       1.00
      C131          C  0.5594170  0.0708890  0.5000020    0.00000       Uiso       1.00
      C132          C  0.5295870  0.0887970  0.5000020    0.00000       Uiso       1.00
      C133          C  0.4715660  0.1239250  0.5000020    0.00000       Uiso       1.00
      H134          H  0.5825240  0.0260360  0.5000020    0.00000       Uiso       1.00
      H135          H  0.5815730  0.0829810  0.5000020    0.00000       Uiso       1.00
      O136          O  0.4434300  0.1362950  0.5000020    0.00000       Uiso       1.00
      C137          C  0.5290120  0.8015811  0.5000020    0.00000       Uiso       1.00
      C138          C  0.5294800  0.7668460  0.5000020    0.00000       Uiso       1.00
      H139          H  0.5519260  0.8109890  0.5000020    0.00000       Uiso       1.00
      H140          H  0.5516370  0.7546070  0.5000020    0.00000       Uiso       1.00
      C141          C  0.5304090  0.0175980  0.5000020    0.00000       Uiso       1.00
      C142          C  0.4402110  0.9635090  0.5000020    0.00000       Uiso       1.00
      C143          C  0.4405830  0.9291120  0.5000020    0.00000       Uiso       1.00
      C144          C  0.4704130  0.9112040  0.5000020    0.00000       Uiso       1.00
      C145          C  0.5284350  0.8760751  0.5000020    0.00000       Uiso       1.00
      H146          H  0.4174770  0.9739640  0.5000020    0.00000       Uiso       1.00
      H147          H  0.4184270  0.9170190  0.5000020    0.00000       Uiso       1.00
      O148          O  0.5565700  0.8637060  0.5000020    0.00000       Uiso       1.00
      C149          C  0.4709880  0.1984200  0.5000020    0.00000       Uiso       1.00
      C150          C  0.4705200  0.2331550  0.5000020    0.00000       Uiso       1.00
      H151          H  0.4480750  0.1890110  0.5000020    0.00000       Uiso       1.00
      H152          H  0.4483640  0.2453930  0.5000020    0.00000       Uiso       1.00
      C153          C  0.9647910  0.5000000  0.5000020    0.00000       Uiso       1.00
      C154          C  0.0706050  0.5000000  0.5000020    0.00000       Uiso       1.00
      N155          N  0.1431120  0.5000000  0.5000020    0.00000       Uiso       1.00
      C156          C  0.1781010  0.5000000  0.5000020    0.00000       Uiso       1.00
      C157          C  0.7488990  0.5000000  0.5000020    0.00000       Uiso       1.00
      C158          C  0.0352100  0.5000000  0.5000020    0.00000       Uiso       1.00
      C159          C  0.9293950  0.5000000  0.5000020    0.00000       Uiso       1.00
      N160          N  0.8568881  0.5000000  0.5000020    0.00000       Uiso       1.00
      C161          C  0.8218990  0.5000000  0.5000020    0.00000       Uiso       1.00
      C162          C  0.2511010  0.5000000  0.5000020    0.00000       Uiso       1.00
      C163          C  0.5000000  0.9647910  0.5000020    0.00000       Uiso       1.00
      C164          C  0.5000000  0.0706050  0.5000020    0.00000       Uiso       1.00
      N165          N  0.5000000  0.1431120  0.5000020    0.00000       Uiso       1.00
      C166          C  0.5000000  0.1781010  0.5000020    0.00000       Uiso       1.00
      C167          C  0.5000000  0.7488990  0.5000020    0.00000       Uiso       1.00
      C168          C  0.5000000  0.0352100  0.5000020    0.00000       Uiso       1.00
      C169          C  0.5000000  0.9293950  0.5000020    0.00000       Uiso       1.00
      N170          N  0.5000000  0.8568881  0.5000020    0.00000       Uiso       1.00
      C171          C  0.5000000  0.8218990  0.5000020    0.00000       Uiso       1.00
      C172          C  0.5000000  0.2511010  0.5000020    0.00000       Uiso       1.00
     Cu173         Cu  0.5000000  0.5000000  0.5000020    0.00000       Uiso       1.00
      N174          N  0.5000000  0.5499320  0.5000020    0.00000       Uiso       1.00
      N175          N  0.5000000  0.4500690  0.5000020    0.00000       Uiso       1.00
      N176          N  0.4500690  0.5000000  0.5000020    0.00000       Uiso       1.00
      N177          N  0.5499320  0.5000000  0.5000020    0.00000       Uiso       1.00
