data_DhaTab
_audit_creation_date              0000-00-00
_audit_creation_method            'LanYouShi'
_symmetry_space_group_name_H-M    'P1'
_cell_length_a                    39.4508018
_cell_length_b                    39.4508018
_cell_length_c                    3.4000001
_cell_angle_alpha                 90.0000000
_cell_angle_beta                  90.0000000
_cell_angle_gamma                 120.0000000
loop_
_atom_site_label
_atom_site_type_symbol
_atom_site_fract_x
_atom_site_fract_y
_atom_site_fract_z
_atom_site_U_iso_or_equiv
_atom_site_adp_type
_atom_site_occupancy
        N1          N  0.5524310  0.1175270  0.5000000    0.00000       Uiso       1.00
        C2          C  0.5634670  0.0859970  0.5000000    0.00000       Uiso       1.00
        C3          C  0.5319780  0.0434340  0.5000000    0.00000       Uiso       1.00
        N4          N  0.8824730  0.4349050  0.5000000    0.00000       Uiso       1.00
        C5          C  0.9140030  0.4774700  0.5000000    0.00000       Uiso       1.00
        C6          C  0.9565660  0.4885440  0.5000000    0.00000       Uiso       1.00
        N7          N  0.5650950  0.4475690  0.5000000    0.00000       Uiso       1.00
        C8          C  0.5225300  0.4365330  0.5000000    0.00000       Uiso       1.00
        C9          C  0.5114560  0.4680220  0.5000000    0.00000       Uiso       1.00
       N10          N  0.4475680  0.8824730  0.5000000    0.00000       Uiso       1.00
       C11          C  0.4365330  0.9140030  0.5000000    0.00000       Uiso       1.00
       C12          C  0.4680220  0.9565660  0.5000000    0.00000       Uiso       1.00
       N13          N  0.1175270  0.5650950  0.5000000    0.00000       Uiso       1.00
       C14          C  0.0859970  0.5225300  0.5000000    0.00000       Uiso       1.00
       C15          C  0.0434340  0.5114560  0.5000000    0.00000       Uiso       1.00
       N16          N  0.4349050  0.5524310  0.5000000    0.00000       Uiso       1.00
       C17          C  0.4774700  0.5634670  0.5000000    0.00000       Uiso       1.00
       C18          C  0.4885440  0.5319780  0.5000000    0.00000       Uiso       1.00
       C19          C  0.5434940  1.0114640  0.5000000    0.00000       Uiso       1.00
       C20          C  0.5114820  0.9679940  0.5000000    0.00000       Uiso       1.00
       H21          H  0.5756950  1.0199920  0.5000000    0.00000       Uiso       1.00
       O22          O  0.5199820  0.9442670  0.5000000    0.00000       Uiso       1.00
       H23          H  0.4162410  0.5024690  0.5000000    0.00000       Uiso       1.00
       C24          C  0.3803020  0.8165630  0.5000000    0.00000       Uiso       1.00
       C25          C  0.3584350  0.7759350  0.5000000    0.00000       Uiso       1.00
       H26          H  0.3645910  0.8342010  0.5000000    0.00000       Uiso       1.00
       H27          H  0.3251010  0.7605420  0.5000000    0.00000       Uiso       1.00
       C28          C  0.1859650  0.6296830  0.5000000    0.00000       Uiso       1.00
       C29          C  0.2266210  0.6491790  0.5000000    0.00000       Uiso       1.00
       H30          H  0.1702840  0.6473500  0.5000000    0.00000       Uiso       1.00
       H31          H  0.2439830  0.6825360  0.5000000    0.00000       Uiso       1.00
       C32          C  0.2921590  0.6472870  0.5000000    0.00000       Uiso       1.00
       C33          C  0.1631150  0.5865510  0.5000000    0.00000       Uiso       1.00
       C34          C  0.2480500  0.6265270  0.5000000    0.00000       Uiso       1.00
       C35          C  0.3117770  0.6259450  0.5000000    0.00000       Uiso       1.00
       H36          H  0.2981900  0.7056010  0.5000000    0.00000       Uiso       1.00
       C37          C -0.0114640  0.5320290  0.5000000    0.00000       Uiso       1.00
       C38          C  0.0320060  0.5434890  0.5000000    0.00000       Uiso       1.00
       H39          H -0.0199920  0.5557020  0.5000000    0.00000       Uiso       1.00
       O40          O  0.0557330  0.5757140  0.5000000    0.00000       Uiso       1.00
       H41          H  0.4975310  0.9137720  0.5000000    0.00000       Uiso       1.00
       C42          C  0.1834370  0.5637390  0.5000000    0.00000       Uiso       1.00
       C43          C  0.2240650  0.5825000  0.5000000    0.00000       Uiso       1.00
       H44          H  0.1657990  0.5303900  0.5000000    0.00000       Uiso       1.00
       H45          H  0.2394580  0.5645590  0.5000000    0.00000       Uiso       1.00
       C46          C  0.3703170  0.5562820  0.5000000    0.00000       Uiso       1.00
       C47          C  0.3508210  0.5774420  0.5000000    0.00000       Uiso       1.00
       H48          H  0.3526500  0.5229340  0.5000000    0.00000       Uiso       1.00
       H49          H  0.3174640  0.5614470  0.5000000    0.00000       Uiso       1.00
       C50          C  0.3527130  0.6448720  0.5000000    0.00000       Uiso       1.00
       C51          C  0.4134490  0.5765630  0.5000000    0.00000       Uiso       1.00
       C52          C  0.3734730  0.6215230  0.5000000    0.00000       Uiso       1.00
       C53          C  0.3740550  0.6858320  0.5000000    0.00000       Uiso       1.00
       H54          H  0.2943990  0.5925890  0.5000000    0.00000       Uiso       1.00
       C55          C  0.4679710  0.4565060  0.5000000    0.00000       Uiso       1.00
       C56          C  0.4565110  0.4885170  0.5000000    0.00000       Uiso       1.00
       H57          H  0.4442980  0.4243050  0.5000000    0.00000       Uiso       1.00
       O58          O  0.4242860  0.4800180  0.5000000    0.00000       Uiso       1.00
       H59          H  0.0862280  0.5837590  0.5000000    0.00000       Uiso       1.00
       C60          C  0.4362610  0.6196980  0.5000000    0.00000       Uiso       1.00
       C61          C  0.4175000  0.6415650  0.5000000    0.00000       Uiso       1.00
       H62          H  0.4696100  0.6354090  0.5000000    0.00000       Uiso       1.00
       H63          H  0.4354410  0.6748990  0.5000000    0.00000       Uiso       1.00
       C64          C  0.4437180  0.8140350  0.5000000    0.00000       Uiso       1.00
       C65          C  0.4225580  0.7733790  0.5000000    0.00000       Uiso       1.00
       H66          H  0.4770650  0.8297160  0.5000000    0.00000       Uiso       1.00
       H67          H  0.4385530  0.7560170  0.5000000    0.00000       Uiso       1.00
       C68          C  0.3551280  0.7078410  0.5000000    0.00000       Uiso       1.00
       C69          C  0.4234360  0.8368850  0.5000000    0.00000       Uiso       1.00
       C70          C  0.3784770  0.7519500  0.5000000    0.00000       Uiso       1.00
       C71          C  0.3141680  0.6882230  0.5000000    0.00000       Uiso       1.00
       H72          H  0.4074110  0.7018100  0.5000000    0.00000       Uiso       1.00
       H73          H  0.4987170  0.4043850  0.5000000    0.00000       Uiso       1.00
       C74          C  0.4565060 -0.0114640  0.5000000    0.00000       Uiso       1.00
       C75          C  0.4885170  0.0320060  0.5000000    0.00000       Uiso       1.00
       H76          H  0.4243050 -0.0199920  0.5000000    0.00000       Uiso       1.00
       O77          O  0.4800180  0.0557330  0.5000000    0.00000       Uiso       1.00
       H78          H  0.5837590  0.4975310  0.5000000    0.00000       Uiso       1.00
       C79          C  0.6196980  0.1834370  0.5000000    0.00000       Uiso       1.00
       C80          C  0.6415650  0.2240650  0.5000000    0.00000       Uiso       1.00
       H81          H  0.6354090  0.1657990  0.5000000    0.00000       Uiso       1.00
       H82          H  0.6748990  0.2394580  0.5000000    0.00000       Uiso       1.00
       C83          C  0.8140349  0.3703170  0.5000000    0.00000       Uiso       1.00
       C84          C  0.7733790  0.3508210  0.5000000    0.00000       Uiso       1.00
       H85          H  0.8297160  0.3526500  0.5000000    0.00000       Uiso       1.00
       H86          H  0.7560170  0.3174640  0.5000000    0.00000       Uiso       1.00
       C87          C  0.7078410  0.3527130  0.5000000    0.00000       Uiso       1.00
       C88          C  0.8368850  0.4134490  0.5000000    0.00000       Uiso       1.00
       C89          C  0.7519500  0.3734730  0.5000000    0.00000       Uiso       1.00
       C90          C  0.6882230  0.3740550  0.5000000    0.00000       Uiso       1.00
       H91          H  0.7018100  0.2943990  0.5000000    0.00000       Uiso       1.00
       C92          C  1.0114640  0.4679710  0.5000000    0.00000       Uiso       1.00
       C93          C  0.9679940  0.4565110  0.5000000    0.00000       Uiso       1.00
       H94          H  1.0199920  0.4442980  0.5000000    0.00000       Uiso       1.00
       O95          O  0.9442670  0.4242860  0.5000000    0.00000       Uiso       1.00
       H96          H  0.5024690  0.0862280  0.5000000    0.00000       Uiso       1.00
       C97          C  0.8165630  0.4362610  0.5000000    0.00000       Uiso       1.00
       C98          C  0.7759350  0.4175000  0.5000000    0.00000       Uiso       1.00
       H99          H  0.8342010  0.4696100  0.5000000    0.00000       Uiso       1.00
      H100          H  0.7605420  0.4354410  0.5000000    0.00000       Uiso       1.00
      C101          C  0.6296830  0.4437180  0.5000000    0.00000       Uiso       1.00
      C102          C  0.6491790  0.4225580  0.5000000    0.00000       Uiso       1.00
      H103          H  0.6473500  0.4770650  0.5000000    0.00000       Uiso       1.00
      H104          H  0.6825360  0.4385530  0.5000000    0.00000       Uiso       1.00
      C105          C  0.6472870  0.3551280  0.5000000    0.00000       Uiso       1.00
      C106          C  0.5865510  0.4234360  0.5000000    0.00000       Uiso       1.00
      C107          C  0.6265270  0.3784770  0.5000000    0.00000       Uiso       1.00
      C108          C  0.6259450  0.3141680  0.5000000    0.00000       Uiso       1.00
      H109          H  0.7056010  0.4074110  0.5000000    0.00000       Uiso       1.00
      C110          C  0.5320290  0.5434940  0.5000000    0.00000       Uiso       1.00
      C111          C  0.5434890  0.5114820  0.5000000    0.00000       Uiso       1.00
      H112          H  0.5557020  0.5756950  0.5000000    0.00000       Uiso       1.00
      O113          O  0.5757140  0.5199820  0.5000000    0.00000       Uiso       1.00
      H114          H  0.9137720  0.4162410  0.5000000    0.00000       Uiso       1.00
      C115          C  0.5637390  0.3803020  0.5000000    0.00000       Uiso       1.00
      C116          C  0.5825000  0.3584350  0.5000000    0.00000       Uiso       1.00
      H117          H  0.5303900  0.3645910  0.5000000    0.00000       Uiso       1.00
      H118          H  0.5645590  0.3251010  0.5000000    0.00000       Uiso       1.00
      C119          C  0.5562820  0.1859650  0.5000000    0.00000       Uiso       1.00
      C120          C  0.5774420  0.2266210  0.5000000    0.00000       Uiso       1.00
      H121          H  0.5229340  0.1702840  0.5000000    0.00000       Uiso       1.00
      H122          H  0.5614460  0.2439830  0.5000000    0.00000       Uiso       1.00
      C123          C  0.6448720  0.2921580  0.5000000    0.00000       Uiso       1.00
      C124          C  0.5765630  0.1631150  0.5000000    0.00000       Uiso       1.00
      C125          C  0.6215230  0.2480500  0.5000000    0.00000       Uiso       1.00
      C126          C  0.6858320  0.3117770  0.5000000    0.00000       Uiso       1.00
      H127          H  0.5925890  0.2981900  0.5000000    0.00000       Uiso       1.00
      H128          H  0.5012830  0.5956150  0.5000000    0.00000       Uiso       1.00
      H129          H  0.5956150  0.0943320  0.5000000    0.00000       Uiso       1.00
      H130          H  0.9056680  0.5012830  0.5000000    0.00000       Uiso       1.00
      H131          H  0.4043850  0.9056680  0.5000000    0.00000       Uiso       1.00
      H132          H  0.0943320  0.4987170  0.5000000    0.00000       Uiso       1.00
