data_DhaTab-23
_audit_creation_date              0000-00-00
_audit_creation_method            'LanYouShi'
_symmetry_space_group_name_H-M    'P1'
_cell_length_a                    37.8343010
_cell_length_b                    37.8343010
_cell_length_c                    3.4000001
_cell_angle_alpha                 90.0000000
_cell_angle_beta                  90.0000000
_cell_angle_gamma                 120.0000000
loop_
_atom_site_label
_atom_site_type_symbol
_atom_site_fract_x
_atom_site_fract_y
_atom_site_fract_z
_atom_site_U_iso_or_equiv
_atom_site_adp_type
_atom_site_occupancy
        N1          N  0.4432360  0.5514390  0.5000000    0.00000       Uiso       1.00
        N2          N  0.4485610  0.8917970  0.5000000    0.00000       Uiso       1.00
        N3          N  0.1082030  0.5567630  0.5000000    0.00000       Uiso       1.00
        N4          N  0.5514390  0.4432360  0.5000000    0.00000       Uiso       1.00
        N5          N  0.8917970  0.4485610  0.5000000    0.00000       Uiso       1.00
        N6          N  0.5567630  0.1082030  0.5000000    0.00000       Uiso       1.00
        C7          C  0.4279000  0.5126260  0.5000000    0.00000       Uiso       1.00
        C8          C  0.4873730  0.9152730  0.5000000    0.00000       Uiso       1.00
        C9          C  0.0847270  0.5721000  0.5000000    0.00000       Uiso       1.00
       C10          C  0.5126260  0.4279000  0.5000000    0.00000       Uiso       1.00
       C11          C  0.9152730  0.4873730  0.5000000    0.00000       Uiso       1.00
       C12          C  0.5721000  0.0847270  0.5000000    0.00000       Uiso       1.00
       C13          C  0.4493070  0.4912190  0.5000000    0.00000       Uiso       1.00
       C14          C  0.5087800  0.9580870  0.5000000    0.00000       Uiso       1.00
       C15          C  0.0419130  0.5506930  0.5000000    0.00000       Uiso       1.00
       C16          C  0.4912190  0.4493070  0.5000000    0.00000       Uiso       1.00
       C17          C  0.9580870  0.5087800  0.5000000    0.00000       Uiso       1.00
       C18          C  0.5506930  0.0419130  0.5000000    0.00000       Uiso       1.00
       C19          C  0.4278320  0.4487780  0.5000000    0.00000       Uiso       1.00
       C20          C  0.5512220  0.9790540  0.5000000    0.00000       Uiso       1.00
       C21          C  0.0209460  0.5721670  0.5000000    0.00000       Uiso       1.00
       C22          C  0.4487780  0.4278320  0.5000000    0.00000       Uiso       1.00
       C23          C  0.9790540  0.5512220  0.5000000    0.00000       Uiso       1.00
       C24          C  0.5721670  0.0209460  0.5000000    0.00000       Uiso       1.00
       H25          H  0.3930400  0.4315900  0.5000000    0.00000       Uiso       1.00
       H26          H  0.5684100  0.9614500  0.5000000    0.00000       Uiso       1.00
       H27          H  0.0385500  0.6069590  0.5000000    0.00000       Uiso       1.00
       H28          H  0.4315900  0.3930400  0.5000000    0.00000       Uiso       1.00
       H29          H  0.9614500  0.5684100  0.5000000    0.00000       Uiso       1.00
       H30          H  0.6069590  0.0385500  0.5000000    0.00000       Uiso       1.00
       C31          C  0.5126940  0.4917490  0.5000000    0.00000       Uiso       1.00
       C32          C  0.5082510  0.0209460  0.5000000    0.00000       Uiso       1.00
       C33          C  0.9790540  0.4873050  0.5000000    0.00000       Uiso       1.00
       C34          C  0.4917490  0.5126940  0.5000000    0.00000       Uiso       1.00
       C35          C  0.0209460  0.5082510  0.5000000    0.00000       Uiso       1.00
       C36          C  0.4873050  0.9790540  0.5000000    0.00000       Uiso       1.00
       O37          O  0.5454880  0.5087930  0.5000000    0.00000       Uiso       1.00
       O38          O  0.4912070  0.0366950  0.5000000    0.00000       Uiso       1.00
       O39          O  0.9633040  0.4545110  0.5000000    0.00000       Uiso       1.00
       O40          O  0.5087930  0.5454880  0.5000000    0.00000       Uiso       1.00
       O41          O  0.0366950  0.4912070  0.5000000    0.00000       Uiso       1.00
       O42          O  0.4545110  0.9633040  0.5000000    0.00000       Uiso       1.00
       C43          C  0.5538350  0.3750230  0.5000000    0.00000       Uiso       1.00
       C44          C  0.6249760  0.1788110  0.5000000    0.00000       Uiso       1.00
       C45          C  0.8211890  0.4461650  0.5000000    0.00000       Uiso       1.00
       C46          C  0.3750230  0.5538350  0.5000000    0.00000       Uiso       1.00
       C47          C  0.1788110  0.6249760  0.5000000    0.00000       Uiso       1.00
       C48          C  0.4461650  0.8211890  0.5000000    0.00000       Uiso       1.00
       C49          C  0.5751620  0.3539470  0.5000000    0.00000       Uiso       1.00
       C50          C  0.6460520  0.2212150  0.5000000    0.00000       Uiso       1.00
       C51          C  0.7787850  0.4248370  0.5000000    0.00000       Uiso       1.00
       C52          C  0.3539470  0.5751620  0.5000000    0.00000       Uiso       1.00
       C53          C  0.2212150  0.6460520  0.5000000    0.00000       Uiso       1.00
       C54          C  0.4248370  0.7787850  0.5000000    0.00000       Uiso       1.00
       H55          H  0.5190420  0.3575240  0.5000000    0.00000       Uiso       1.00
       H56          H  0.6424760  0.1615180  0.5000000    0.00000       Uiso       1.00
       H57          H  0.8384810  0.4809580  0.5000000    0.00000       Uiso       1.00
       H58          H  0.3575240  0.5190420  0.5000000    0.00000       Uiso       1.00
       H59          H  0.1615180  0.6424760  0.5000000    0.00000       Uiso       1.00
       H60          H  0.4809580  0.8384820  0.5000000    0.00000       Uiso       1.00
       H61          H  0.5578690  0.3191550  0.5000000    0.00000       Uiso       1.00
       H62          H  0.6808450  0.2387140  0.5000000    0.00000       Uiso       1.00
       H63          H  0.7612850  0.4421300  0.5000000    0.00000       Uiso       1.00
       H64          H  0.3191550  0.5578690  0.5000000    0.00000       Uiso       1.00
       H65          H  0.2387140  0.6808450  0.5000000    0.00000       Uiso       1.00
       H66          H  0.4421300  0.7612850  0.5000000    0.00000       Uiso       1.00
       C67          C  0.5569700  0.1777470  0.5000000    0.00000       Uiso       1.00
       C68          C  0.8222520  0.3792220  0.5000000    0.00000       Uiso       1.00
       C69          C  0.6207770  0.4430300  0.5000000    0.00000       Uiso       1.00
       C70          C  0.1777470  0.5569700  0.5000000    0.00000       Uiso       1.00
       C71          C  0.3792220  0.8222520  0.5000000    0.00000       Uiso       1.00
       C72          C  0.4430300  0.6207770  0.5000000    0.00000       Uiso       1.00
       C73          C  0.5772890  0.2201390  0.5000000    0.00000       Uiso       1.00
       C74          C  0.7798610  0.3571500  0.5000000    0.00000       Uiso       1.00
       C75          C  0.6428500  0.4227110  0.5000000    0.00000       Uiso       1.00
       C76          C  0.2201390  0.5772890  0.5000000    0.00000       Uiso       1.00
       C77          C  0.3571500  0.7798610  0.5000000    0.00000       Uiso       1.00
       C78          C  0.4227110  0.6428500  0.5000000    0.00000       Uiso       1.00
       H79          H  0.5221800  0.1599560  0.5000000    0.00000       Uiso       1.00
       H80          H  0.8400440  0.3622240  0.5000000    0.00000       Uiso       1.00
       H81          H  0.6377760  0.4778200  0.5000000    0.00000       Uiso       1.00
       H82          H  0.1599560  0.5221800  0.5000000    0.00000       Uiso       1.00
       H83          H  0.3622240  0.8400440  0.5000000    0.00000       Uiso       1.00
       H84          H  0.4778200  0.6377760  0.5000000    0.00000       Uiso       1.00
       H85          H  0.5591780  0.2368110  0.5000000    0.00000       Uiso       1.00
       H86          H  0.7631890  0.3223670  0.5000000    0.00000       Uiso       1.00
       H87          H  0.6776330  0.4408220  0.5000000    0.00000       Uiso       1.00
       H88          H  0.2368110  0.5591780  0.5000000    0.00000       Uiso       1.00
       H89          H  0.3223670  0.7631890  0.5000000    0.00000       Uiso       1.00
       H90          H  0.4408220  0.6776330  0.5000000    0.00000       Uiso       1.00
       C91          C  0.6456980  0.2903810  0.5000000    0.00000       Uiso       1.00
       C92          C  0.7096190  0.3553180  0.5000000    0.00000       Uiso       1.00
       C93          C  0.6446820  0.3543010  0.5000000    0.00000       Uiso       1.00
       C94          C  0.2903810  0.6456980  0.5000000    0.00000       Uiso       1.00
       C95          C  0.3553170  0.7096190  0.5000000    0.00000       Uiso       1.00
       C96          C  0.3543010  0.6446820  0.5000000    0.00000       Uiso       1.00
       C97          C  0.5799810  0.1557620  0.5000000    0.00000       Uiso       1.00
       C98          C  0.8442380  0.4242190  0.5000000    0.00000       Uiso       1.00
       C99          C  0.5757810  0.4200190  0.5000000    0.00000       Uiso       1.00
      C100          C  0.1557620  0.5799810  0.5000000    0.00000       Uiso       1.00
      C101          C  0.4242190  0.8442380  0.5000000    0.00000       Uiso       1.00
      C102          C  0.4200190  0.5757810  0.5000000    0.00000       Uiso       1.00
      C103          C  0.6232350  0.2443660  0.5000000    0.00000       Uiso       1.00
      C104          C  0.7556340  0.3788690  0.5000000    0.00000       Uiso       1.00
      C105          C  0.6211310  0.3767650  0.5000000    0.00000       Uiso       1.00
      C106          C  0.2443660  0.6232350  0.5000000    0.00000       Uiso       1.00
      C107          C  0.3788690  0.7556340  0.5000000    0.00000       Uiso       1.00
      C108          C  0.3767650  0.6211310  0.5000000    0.00000       Uiso       1.00
      C109          C  0.6884090  0.3125960  0.5000000    0.00000       Uiso       1.00
      C110          C  0.6874040  0.3758130  0.5000000    0.00000       Uiso       1.00
      C111          C  0.6241870  0.3115910  0.5000000    0.00000       Uiso       1.00
      C112          C  0.3125960  0.6884090  0.5000000    0.00000       Uiso       1.00
      C113          C  0.3758130  0.6874040  0.5000000    0.00000       Uiso       1.00
      C114          C  0.3115910  0.6241870  0.5000000    0.00000       Uiso       1.00
      H115          H  0.5894030  0.2934990  0.5000000    0.00000       Uiso       1.00
      H116          H  0.7065000  0.2959040  0.5000000    0.00000       Uiso       1.00
      H117          H  0.7040960  0.4105960  0.5000000    0.00000       Uiso       1.00
      H118          H  0.2934990  0.5894030  0.5000000    0.00000       Uiso       1.00
      H119          H  0.2959040  0.7065000  0.5000000    0.00000       Uiso       1.00
      H120          H  0.4105960  0.7040960  0.5000000    0.00000       Uiso       1.00
      H121          H  0.5630910  0.4925270  0.5000000    0.00000       Uiso       1.00
      H122          H  0.5074730  0.0705640  0.5000000    0.00000       Uiso       1.00
      H123          H  0.9294360  0.4369090  0.5000000    0.00000       Uiso       1.00
      H124          H  0.4925270  0.5630910  0.5000000    0.00000       Uiso       1.00
      H125          H  0.0705640  0.5074730  0.5000000    0.00000       Uiso       1.00
      H126          H  0.4369090  0.9294360  0.5000000    0.00000       Uiso       1.00
      H127          H  0.3933590  0.4917340  0.5000000    0.00000       Uiso       1.00
      H128          H  0.5082650  0.9016250  0.5000000    0.00000       Uiso       1.00
      H129          H  0.0983750  0.6066400  0.5000000    0.00000       Uiso       1.00
      H130          H  0.4917340  0.3933590  0.5000000    0.00000       Uiso       1.00
      H131          H  0.9016250  0.5082650  0.5000000    0.00000       Uiso       1.00
      H132          H  0.6066400  0.0983750  0.5000000    0.00000       Uiso       1.00
