data_4PE-1P-oxi
_audit_creation_date              0000-00-00
_audit_creation_method            'LanYouShi'
_symmetry_space_group_name_H-M    'P1'
_cell_length_a                    38.7690010
_cell_length_b                    38.7690010
_cell_length_c                    5.3490000
_cell_angle_alpha                 90.0000000
_cell_angle_beta                  90.0000000
_cell_angle_gamma                 120.0000000
loop_
_atom_site_label
_atom_site_type_symbol
_atom_site_fract_x
_atom_site_fract_y
_atom_site_fract_z
_atom_site_U_iso_or_equiv
_atom_site_adp_type
_atom_site_occupancy
        C1          C  0.4814660  0.4814290  0.5322900    0.00000       Uiso       1.00
        C2          C  0.5185710  0.0000370  0.5322900    0.00000       Uiso       1.00
        C3          C  0.9999630  0.5185340  0.5322900    0.00000       Uiso       1.00
        C4          C  0.5185340  0.5185710  0.5322900    0.00000       Uiso       1.00
        C5          C  0.4814290  0.9999630  0.5322900    0.00000       Uiso       1.00
        C6          C  0.0000370  0.4814660  0.5322900    0.00000       Uiso       1.00
        C7          C  0.4438890  0.4795460  0.5310090    0.00000       Uiso       1.00
        C8          C  0.5204550  0.9643440  0.5310090    0.00000       Uiso       1.00
        C9          C  0.0356560  0.5561110  0.5310090    0.00000       Uiso       1.00
       C10          C  0.5561110  0.5204550  0.5310090    0.00000       Uiso       1.00
       C11          C  0.4795460  0.0356560  0.5310090    0.00000       Uiso       1.00
       C12          C  0.9643440  0.4438890  0.5310090    0.00000       Uiso       1.00
       C13          C  0.4153020  0.4578100  0.3438480    0.00000       Uiso       1.00
       C14          C  0.5421900  0.9574920  0.3438480    0.00000       Uiso       1.00
       C15          C  0.0425090  0.5846990  0.3438480    0.00000       Uiso       1.00
       C16          C  0.5846990  0.5421900  0.3438480    0.00000       Uiso       1.00
       C17          C  0.4578100  0.0425090  0.3438480    0.00000       Uiso       1.00
       C18          C  0.9574920  0.4153020  0.3438480    0.00000       Uiso       1.00
       C19          C  0.3783960  0.4565050  0.3371290    0.00000       Uiso       1.00
       C20          C  0.5434950  0.9218920  0.3371290    0.00000       Uiso       1.00
       C21          C  0.0781090  0.6216040  0.3371290    0.00000       Uiso       1.00
       C22          C  0.6216040  0.5434950  0.3371290    0.00000       Uiso       1.00
       C23          C  0.4565050  0.0781090  0.3371290    0.00000       Uiso       1.00
       C24          C  0.9218920  0.3783960  0.3371290    0.00000       Uiso       1.00
       C25          C  0.3689180  0.4769980  0.5182560    0.00000       Uiso       1.00
       C26          C  0.5230020  0.8919200  0.5182560    0.00000       Uiso       1.00
       C27          C  0.1080800  0.6310820  0.5182560    0.00000       Uiso       1.00
       C28          C  0.6310820  0.5230020  0.5182560    0.00000       Uiso       1.00
       C29          C  0.4769980  0.1080800  0.5182560    0.00000       Uiso       1.00
       C30          C  0.8919200  0.3689180  0.5182560    0.00000       Uiso       1.00
       C31          C  0.3970990  0.4985290  0.7058420    0.00000       Uiso       1.00
       C32          C  0.5014710  0.8985700  0.7058420    0.00000       Uiso       1.00
       C33          C  0.1014300  0.6029010  0.7058420    0.00000       Uiso       1.00
       C34          C  0.6029010  0.5014710  0.7058420    0.00000       Uiso       1.00
       C35          C  0.4985290  0.1014300  0.7058420    0.00000       Uiso       1.00
       C36          C  0.8985700  0.3970990  0.7058420    0.00000       Uiso       1.00
       C37          C  0.4337370  0.4993230  0.7133670    0.00000       Uiso       1.00
       C38          C  0.5006780  0.9344140  0.7133670    0.00000       Uiso       1.00
       C39          C  0.0655860  0.5662640  0.7133670    0.00000       Uiso       1.00
       C40          C  0.5662640  0.5006780  0.7133670    0.00000       Uiso       1.00
       C41          C  0.4993230  0.0655860  0.7133670    0.00000       Uiso       1.00
       C42          C  0.9344140  0.4337370  0.7133670    0.00000       Uiso       1.00
       H43          H  0.4531660  0.5147050  0.8529800    0.00000       Uiso       1.00
       H44          H  0.4852950  0.9384610  0.8529800    0.00000       Uiso       1.00
       H45          H  0.0615390  0.5468350  0.8529800    0.00000       Uiso       1.00
       H46          H  0.5468350  0.4852950  0.8529800    0.00000       Uiso       1.00
       H47          H  0.5147050  0.0615390  0.8529800    0.00000       Uiso       1.00
       H48          H  0.9384610  0.4531660  0.8529800    0.00000       Uiso       1.00
       C49          C  0.4797510  0.4439510  0.5273440    0.00000       Uiso       1.00
       C50          C  0.5560490  0.0357990  0.5273440    0.00000       Uiso       1.00
       C51          C  0.9642010  0.5202500  0.5273440    0.00000       Uiso       1.00
       C52          C  0.5202500  0.5560490  0.5273440    0.00000       Uiso       1.00
       C53          C  0.4439510  0.9642010  0.5273440    0.00000       Uiso       1.00
       C54          C  0.0357990  0.4797510  0.5273440    0.00000       Uiso       1.00
       C55          C  0.4578680  0.4143640  0.7089380    0.00000       Uiso       1.00
       C56          C  0.5856360  0.0435040  0.7089380    0.00000       Uiso       1.00
       C57          C  0.9564960  0.5421320  0.7089380    0.00000       Uiso       1.00
       C58          C  0.5421320  0.5856360  0.7089380    0.00000       Uiso       1.00
       C59          C  0.4143640  0.9564960  0.7089380    0.00000       Uiso       1.00
       C60          C  0.0435040  0.4578680  0.7089380    0.00000       Uiso       1.00
       C61          C  0.4561420  0.3772320  0.7031740    0.00000       Uiso       1.00
       C62          C  0.6227680  0.0789090  0.7031740    0.00000       Uiso       1.00
       C63          C  0.9210910  0.5438590  0.7031740    0.00000       Uiso       1.00
       C64          C  0.5438590  0.6227680  0.7031740    0.00000       Uiso       1.00
       C65          C  0.3772320  0.9210910  0.7031740    0.00000       Uiso       1.00
       C66          C  0.0789090  0.4561420  0.7031740    0.00000       Uiso       1.00
       C67          C  0.4767040  0.3687820  0.5177960    0.00000       Uiso       1.00
       C68          C  0.6312180  0.1079220  0.5177960    0.00000       Uiso       1.00
       C69          C  0.8920780  0.5232960  0.5177960    0.00000       Uiso       1.00
       C70          C  0.5232960  0.6312180  0.5177960    0.00000       Uiso       1.00
       C71          C  0.3687820  0.8920780  0.5177960    0.00000       Uiso       1.00
       C72          C  0.1079220  0.4767040  0.5177960    0.00000       Uiso       1.00
       C73          C  0.4980180  0.3978500  0.3333380    0.00000       Uiso       1.00
       C74          C  0.6021510  0.1001680  0.3333380    0.00000       Uiso       1.00
       C75          C  0.8998320  0.5019820  0.3333380    0.00000       Uiso       1.00
       C76          C  0.5019820  0.6021510  0.3333380    0.00000       Uiso       1.00
       C77          C  0.3978500  0.8998320  0.3333380    0.00000       Uiso       1.00
       C78          C  0.1001680  0.4980180  0.3333380    0.00000       Uiso       1.00
       C79          C  0.4991860  0.4346480  0.3380430    0.00000       Uiso       1.00
       C80          C  0.5653520  0.0645380  0.3380430    0.00000       Uiso       1.00
       C81          C  0.9354620  0.5008140  0.3380430    0.00000       Uiso       1.00
       C82          C  0.5008140  0.5653520  0.3380430    0.00000       Uiso       1.00
       C83          C  0.4346480  0.9354620  0.3380430    0.00000       Uiso       1.00
       C84          C  0.0645380  0.4991860  0.3380430    0.00000       Uiso       1.00
       N85          N  0.3347320  0.4784880  0.5209920    0.00000       Uiso       1.00
       N86          N  0.5215120  0.8562440  0.5209920    0.00000       Uiso       1.00
       N87          N  0.1437570  0.6652690  0.5209920    0.00000       Uiso       1.00
       N88          N  0.6652690  0.5215120  0.5209920    0.00000       Uiso       1.00
       N89          N  0.4784880  0.1437570  0.5209920    0.00000       Uiso       1.00
       N90          N  0.8562440  0.3347320  0.5209920    0.00000       Uiso       1.00
       C91          C  0.2978410  0.4539680  0.4279320    0.00000       Uiso       1.00
       C92          C  0.5460320  0.8438730  0.4279320    0.00000       Uiso       1.00
       C93          C  0.1561270  0.7021590  0.4279320    0.00000       Uiso       1.00
       C94          C  0.7021590  0.5460320  0.4279320    0.00000       Uiso       1.00
       C95          C  0.4539680  0.1561270  0.4279320    0.00000       Uiso       1.00
       C96          C  0.8438730  0.2978410  0.4279320    0.00000       Uiso       1.00
       C97          C  0.2683510  0.4651870  0.4389100    0.00000       Uiso       1.00
       C98          C  0.5348130  0.8031640  0.4389100    0.00000       Uiso       1.00
       C99          C  0.1968360  0.7316490  0.4389100    0.00000       Uiso       1.00
      C100          C  0.7316490  0.5348130  0.4389100    0.00000       Uiso       1.00
      C101          C  0.4651870  0.1968360  0.4389100    0.00000       Uiso       1.00
      C102          C  0.8031640  0.2683510  0.4389100    0.00000       Uiso       1.00
      C103          C  0.2273080  0.4363500  0.4295760    0.00000       Uiso       1.00
      C104          C  0.5636510  0.7909590  0.4295760    0.00000       Uiso       1.00
      C105          C  0.2090420  0.7726920  0.4295760    0.00000       Uiso       1.00
      C106          C  0.7726920  0.5636500  0.4295760    0.00000       Uiso       1.00
      C107          C  0.4363500  0.2090420  0.4295760    0.00000       Uiso       1.00
      C108          C  0.7909590  0.2273080  0.4295760    0.00000       Uiso       1.00
      C109          C  0.2787750  0.5057150  0.4563870    0.00000       Uiso       1.00
      C110          C  0.4942850  0.7730600  0.4563870    0.00000       Uiso       1.00
      C111          C  0.2269400  0.7212250  0.4563870    0.00000       Uiso       1.00
      C112          C  0.7212250  0.4942850  0.4563870    0.00000       Uiso       1.00
      C113          C  0.5057150  0.2269400  0.4563870    0.00000       Uiso       1.00
      C114          C  0.7730600  0.2787750  0.4563870    0.00000       Uiso       1.00
      N115          N  0.4739290  0.3325180  0.5230240    0.00000       Uiso       1.00
      N116          N  0.6674820  0.1414110  0.5230240    0.00000       Uiso       1.00
      N117          N  0.8585899  0.5260710  0.5230240    0.00000       Uiso       1.00
      N118          N  0.5260710  0.6674820  0.5230240    0.00000       Uiso       1.00
      N119          N  0.3325180  0.8585900  0.5230240    0.00000       Uiso       1.00
      N120          N  0.1414110  0.4739290  0.5230240    0.00000       Uiso       1.00
      C121          C  0.4995760  0.3204920  0.4459520    0.00000       Uiso       1.00
      C122          C  0.6795080  0.1790840  0.4459520    0.00000       Uiso       1.00
      C123          C  0.8209160  0.5004240  0.4459520    0.00000       Uiso       1.00
      C124          C  0.5004240  0.6795080  0.4459520    0.00000       Uiso       1.00
      C125          C  0.3204920  0.8209160  0.4459520    0.00000       Uiso       1.00
      C126          C  0.1790840  0.4995760  0.4459520    0.00000       Uiso       1.00
      C127          C  0.4881350  0.2797090  0.4483880    0.00000       Uiso       1.00
      C128          C  0.7202910  0.2084260  0.4483880    0.00000       Uiso       1.00
      C129          C  0.7915740  0.5118650  0.4483880    0.00000       Uiso       1.00
      C130          C  0.5118650  0.7202910  0.4483880    0.00000       Uiso       1.00
      C131          C  0.2797090  0.7915740  0.4483880    0.00000       Uiso       1.00
      C132          C  0.2084260  0.4881350  0.4483880    0.00000       Uiso       1.00
      C133          C  0.5169510  0.2675020  0.4601150    0.00000       Uiso       1.00
      C134          C  0.7324980  0.2494490  0.4601150    0.00000       Uiso       1.00
      C135          C  0.7505510  0.4830490  0.4601150    0.00000       Uiso       1.00
      C136          C  0.4830490  0.7324980  0.4601150    0.00000       Uiso       1.00
      C137          C  0.2675020  0.7505510  0.4601150    0.00000       Uiso       1.00
      C138          C  0.2494490  0.5169510  0.4601150    0.00000       Uiso       1.00
      C139          C  0.4475680  0.2496110  0.4352780    0.00000       Uiso       1.00
      C140          C  0.7503890  0.1979570  0.4352780    0.00000       Uiso       1.00
      C141          C  0.8020430  0.5524320  0.4352780    0.00000       Uiso       1.00
      C142          C  0.5524320  0.7503890  0.4352780    0.00000       Uiso       1.00
      C143          C  0.2496110  0.8020430  0.4352780    0.00000       Uiso       1.00
      C144          C  0.1979570  0.4475680  0.4352780    0.00000       Uiso       1.00
      H145          H  0.4212810  0.4429630  0.2082970    0.00000       Uiso       1.00
      H146          H  0.5570380  0.9783189  0.2082970    0.00000       Uiso       1.00
      H147          H  0.0216820  0.5787190  0.2082970    0.00000       Uiso       1.00
      H148          H  0.5787190  0.5570370  0.2082970    0.00000       Uiso       1.00
      H149          H  0.4429630  0.0216820  0.2082970    0.00000       Uiso       1.00
      H150          H  0.9783180  0.4212810  0.2082970    0.00000       Uiso       1.00
      H151          H  0.3589970  0.4410400  0.1962120    0.00000       Uiso       1.00
      H152          H  0.5589610  0.9179580  0.1962120    0.00000       Uiso       1.00
      H153          H  0.0820420  0.6410030  0.1962120    0.00000       Uiso       1.00
      H154          H  0.6410030  0.5589600  0.1962120    0.00000       Uiso       1.00
      H155          H  0.4410400  0.0820420  0.1962120    0.00000       Uiso       1.00
      H156          H  0.9179580  0.3589970  0.1962120    0.00000       Uiso       1.00
      H157          H  0.3911070  0.5137440  0.8393140    0.00000       Uiso       1.00
      H158          H  0.4862570  0.8773640  0.8393140    0.00000       Uiso       1.00
      H159          H  0.1226370  0.6088940  0.8393140    0.00000       Uiso       1.00
      H160          H  0.6088940  0.4862570  0.8393140    0.00000       Uiso       1.00
      H161          H  0.5137440  0.1226370  0.8393140    0.00000       Uiso       1.00
      H162          H  0.8773630  0.3911070  0.8393140    0.00000       Uiso       1.00
      H163          H  0.4429980  0.4196430  0.8478019    0.00000       Uiso       1.00
      H164          H  0.5803580  0.0233550  0.8478019    0.00000       Uiso       1.00
      H165          H  0.9766451  0.5570030  0.8478019    0.00000       Uiso       1.00
      H166          H  0.5570030  0.5803580  0.8478019    0.00000       Uiso       1.00
      H167          H  0.4196430  0.9766451  0.8478019    0.00000       Uiso       1.00
      H168          H  0.0233550  0.4429980  0.8478019    0.00000       Uiso       1.00
      H169          H  0.4399590  0.3564590  0.8368309    0.00000       Uiso       1.00
      H170          H  0.6435410  0.0835000  0.8368309    0.00000       Uiso       1.00
      H171          H  0.9165010  0.5600410  0.8368309    0.00000       Uiso       1.00
      H172          H  0.5600410  0.6435410  0.8368309    0.00000       Uiso       1.00
      H173          H  0.3564590  0.9165010  0.8368309    0.00000       Uiso       1.00
      H174          H  0.0835000  0.4399590  0.8368309    0.00000       Uiso       1.00
      H175          H  0.5123610  0.3923890  0.1919550    0.00000       Uiso       1.00
      H176          H  0.6076120  0.1199730  0.1919550    0.00000       Uiso       1.00
      H177          H  0.8800280  0.4876390  0.1919550    0.00000       Uiso       1.00
      H178          H  0.4876390  0.6076120  0.1919550    0.00000       Uiso       1.00
      H179          H  0.3923890  0.8800280  0.1919550    0.00000       Uiso       1.00
      H180          H  0.1199730  0.5123610  0.1919550    0.00000       Uiso       1.00
      H181          H  0.5143120  0.4547310  0.2008450    0.00000       Uiso       1.00
      H182          H  0.5452690  0.0595810  0.2008450    0.00000       Uiso       1.00
      H183          H  0.9404190  0.4856880  0.2008450    0.00000       Uiso       1.00
      H184          H  0.4856880  0.5452690  0.2008450    0.00000       Uiso       1.00
      H185          H  0.4547310  0.9404190  0.2008450    0.00000       Uiso       1.00
      H186          H  0.0595810  0.5143120  0.2008450    0.00000       Uiso       1.00
      O187          O  0.2895520  0.4209520  0.3357410    0.00000       Uiso       1.00
      O188          O  0.5790490  0.8686010  0.3357410    0.00000       Uiso       1.00
      O189          O  0.1313990  0.7104480  0.3357410    0.00000       Uiso       1.00
      O190          O  0.7104480  0.5790490  0.3357410    0.00000       Uiso       1.00
      O191          O  0.4209520  0.1313990  0.3357410    0.00000       Uiso       1.00
      O192          O  0.8686010  0.2895520  0.3357410    0.00000       Uiso       1.00
      H193          H  0.2182180  0.4066490  0.4186430    0.00000       Uiso       1.00
      H194          H  0.5933520  0.8115700  0.4186430    0.00000       Uiso       1.00
      H195          H  0.1884300  0.7817820  0.4186430    0.00000       Uiso       1.00
      H196          H  0.7817820  0.5933520  0.4186430    0.00000       Uiso       1.00
      H197          H  0.4066490  0.1884300  0.4186430    0.00000       Uiso       1.00
      H198          H  0.8115700  0.2182180  0.4186430    0.00000       Uiso       1.00
      H199          H  0.3080020  0.5277530  0.4641140    0.00000       Uiso       1.00
      H200          H  0.4722470  0.7802490  0.4641140    0.00000       Uiso       1.00
      H201          H  0.2197510  0.6919980  0.4641140    0.00000       Uiso       1.00
      H202          H  0.6919980  0.4722470  0.4641140    0.00000       Uiso       1.00
      H203          H  0.5277530  0.2197510  0.4641140    0.00000       Uiso       1.00
      H204          H  0.7802490  0.3080020  0.4641140    0.00000       Uiso       1.00
      O205          O  0.5340290  0.3457890  0.3762520    0.00000       Uiso       1.00
      O206          O  0.6542120  0.1882400  0.3762520    0.00000       Uiso       1.00
      O207          O  0.8117610  0.4659720  0.3762520    0.00000       Uiso       1.00
      O208          O  0.4659720  0.6542120  0.3762520    0.00000       Uiso       1.00
      O209          O  0.3457890  0.8117610  0.3762520    0.00000       Uiso       1.00
      O210          O  0.1882400  0.5340290  0.3762520    0.00000       Uiso       1.00
      H211          H  0.5466510  0.2881030  0.4716940    0.00000       Uiso       1.00
      H212          H  0.7118970  0.2585480  0.4716940    0.00000       Uiso       1.00
      H213          H  0.7414520  0.4533490  0.4716940    0.00000       Uiso       1.00
      H214          H  0.4533490  0.7118970  0.4716940    0.00000       Uiso       1.00
      H215          H  0.2881030  0.7414520  0.4716940    0.00000       Uiso       1.00
      H216          H  0.2585480  0.5466510  0.4716940    0.00000       Uiso       1.00
      H217          H  0.4255730  0.2568550  0.4269620    0.00000       Uiso       1.00
      H218          H  0.7431460  0.1687180  0.4269620    0.00000       Uiso       1.00
      H219          H  0.8312820  0.5744280  0.4269620    0.00000       Uiso       1.00
      H220          H  0.5744280  0.7431460  0.4269620    0.00000       Uiso       1.00
      H221          H  0.2568550  0.8312820  0.4269620    0.00000       Uiso       1.00
      H222          H  0.1687180  0.4255730  0.4269620    0.00000       Uiso       1.00
