data_DhaTta-23
_audit_creation_date              0000-00-00
_audit_creation_method            'LanYouShi'
_symmetry_space_group_name_H-M    'P1'
_cell_length_a                    65.5308990
_cell_length_b                    37.8343010
_cell_length_c                    3.4000001
_cell_angle_alpha                 90.0000000
_cell_angle_beta                  90.0000000
_cell_angle_gamma                 90.0000000
loop_
_atom_site_label
_atom_site_type_symbol
_atom_site_fract_x
_atom_site_fract_y
_atom_site_fract_z
_atom_site_U_iso_or_equiv
_atom_site_adp_type
_atom_site_occupancy
        C1          C  0.7329890  0.1383110  0.4975930    0.00000       Uiso       1.00
        C2          C  0.5585280  0.0126820  0.4511320    0.00000       Uiso       1.00
        C3          C  0.7092590  0.8123260  0.4982870    0.00000       Uiso       1.00
        C4          C  0.2329880  0.6383110  0.4975930    0.00000       Uiso       1.00
        C5          C  0.0585280  0.5126820  0.4511320    0.00000       Uiso       1.00
        C6          C  0.2092590  0.3123260  0.4982870    0.00000       Uiso       1.00
        C7          C  0.2670120  0.1383110  0.5024070    0.00000       Uiso       1.00
        C8          C  0.4414720  0.0126820  0.5488680    0.00000       Uiso       1.00
        C9          C  0.2907410  0.8123260  0.5017130    0.00000       Uiso       1.00
       C10          C  0.7670120  0.6383110  0.5024070    0.00000       Uiso       1.00
       C11          C  0.9414730  0.5126820  0.5488680    0.00000       Uiso       1.00
       C12          C  0.7907420  0.3123260  0.5017130    0.00000       Uiso       1.00
       N13          N  0.7278000  0.1732360  0.4751560    0.00000       Uiso       1.00
       N14          N  0.5431430  0.9885540  0.4942400    0.00000       Uiso       1.00
       N15          N  0.7292880  0.8024940  0.5214850    0.00000       Uiso       1.00
       N16          N  0.2278000  0.6732360  0.4751560    0.00000       Uiso       1.00
       N17          N  0.0431430  0.4885540  0.4942400    0.00000       Uiso       1.00
       N18          N  0.2292880  0.3024940  0.5214850    0.00000       Uiso       1.00
       N19          N  0.2722010  0.1732360  0.5248440    0.00000       Uiso       1.00
       N20          N  0.4568570  0.9885540  0.5057600    0.00000       Uiso       1.00
       N21          N  0.2707120  0.8024940  0.4785150    0.00000       Uiso       1.00
       N22          N  0.7722010  0.6732360  0.5248440    0.00000       Uiso       1.00
       N23          N  0.9568570  0.4885540  0.5057600    0.00000       Uiso       1.00
       N24          N  0.7707120  0.3024940  0.4785150    0.00000       Uiso       1.00
       C25          C  0.7399780  0.2028520  0.4561790    0.00000       Uiso       1.00
       C26          C  0.5222210  0.9926761  0.4976050    0.00000       Uiso       1.00
       C27          C  0.7379460  0.7693710  0.5420680    0.00000       Uiso       1.00
       C28          C  0.2399770  0.7028520  0.4561790    0.00000       Uiso       1.00
       C29          C  0.0222210  0.4926760  0.4976050    0.00000       Uiso       1.00
       C30          C  0.2379460  0.2693710  0.5420680    0.00000       Uiso       1.00
       C31          C  0.2600230  0.2028520  0.5438210    0.00000       Uiso       1.00
       C32          C  0.4777790  0.9926761  0.5023950    0.00000       Uiso       1.00
       C33          C  0.2620540  0.7693710  0.4579320    0.00000       Uiso       1.00
       C34          C  0.7600230  0.7028520  0.5438210    0.00000       Uiso       1.00
       C35          C  0.9777799  0.4926760  0.5023950    0.00000       Uiso       1.00
       C36          C  0.7620550  0.2693710  0.4579320    0.00000       Uiso       1.00
       C37          C  0.7303070  0.2351790  0.5485530    0.00000       Uiso       1.00
       C38          C  0.5107890  0.9610060  0.4984670    0.00000       Uiso       1.00
       C39          C  0.7589500  0.7675630  0.4506610    0.00000       Uiso       1.00
       C40          C  0.2303060  0.7351790  0.5485530    0.00000       Uiso       1.00
       C41          C  0.0107890  0.4610060  0.4984670    0.00000       Uiso       1.00
       C42          C  0.2589500  0.2675630  0.4506610    0.00000       Uiso       1.00
       C43          C  0.2696940  0.2351790  0.4514470    0.00000       Uiso       1.00
       C44          C  0.4892110  0.9610060  0.5015330    0.00000       Uiso       1.00
       C45          C  0.2410500  0.7675630  0.5493390    0.00000       Uiso       1.00
       C46          C  0.7696940  0.7351790  0.4514470    0.00000       Uiso       1.00
       C47          C  0.9892120  0.4610060  0.5015330    0.00000       Uiso       1.00
       C48          C  0.7410510  0.2675630  0.5493390    0.00000       Uiso       1.00
       H49          H  0.7481970  0.1324800  0.5210940    0.00000       Uiso       1.00
       H50          H  0.5544260  0.0383630  0.4035250    0.00000       Uiso       1.00
       H51          H  0.6986900  0.7925060  0.4754930    0.00000       Uiso       1.00
       H52          H  0.2481970  0.6324800  0.5210940    0.00000       Uiso       1.00
       H53          H  0.0544260  0.5383630  0.4035250    0.00000       Uiso       1.00
       H54          H  0.1986900  0.2925060  0.4754930    0.00000       Uiso       1.00
       H55          H  0.2518040  0.1324800  0.4789060    0.00000       Uiso       1.00
       H56          H  0.4455740  0.0383630  0.5964750    0.00000       Uiso       1.00
       H57          H  0.3013110  0.7925060  0.5245070    0.00000       Uiso       1.00
       H58          H  0.7518040  0.6324800  0.4789060    0.00000       Uiso       1.00
       H59          H  0.9455740  0.5383630  0.5964750    0.00000       Uiso       1.00
       H60          H  0.8013110  0.2925060  0.5245070    0.00000       Uiso       1.00
       H61          H  0.7151220  0.2351540  0.6203320    0.00000       Uiso       1.00
       H62          H  0.5183290  0.9372880  0.4968150    0.00000       Uiso       1.00
       H63          H  0.7665930  0.7902760  0.3784130    0.00000       Uiso       1.00
       H64          H  0.2151220  0.7351540  0.6203320    0.00000       Uiso       1.00
       H65          H  0.0183290  0.4372880  0.4968150    0.00000       Uiso       1.00
       H66          H  0.2665930  0.2902760  0.3784130    0.00000       Uiso       1.00
       H67          H  0.2848780  0.2351540  0.3796680    0.00000       Uiso       1.00
       H68          H  0.4816710  0.9372880  0.5031850    0.00000       Uiso       1.00
       H69          H  0.2334070  0.7902760  0.6215870    0.00000       Uiso       1.00
       H70          H  0.7848780  0.7351540  0.3796680    0.00000       Uiso       1.00
       H71          H  0.9816720  0.4372880  0.5031850    0.00000       Uiso       1.00
       H72          H  0.7334070  0.2902760  0.6215870    0.00000       Uiso       1.00
       C73          C  0.7718980  0.2371820  0.3466890    0.00000       Uiso       1.00
       C74          C  0.9890621  0.5250170  0.4969280    0.00000       Uiso       1.00
       C75          C  0.7390020  0.7043290  0.6545240    0.00000       Uiso       1.00
       C76          C  0.2718980  0.7371820  0.3466890    0.00000       Uiso       1.00
       C77          C  0.4890620  0.0250170  0.4969280    0.00000       Uiso       1.00
       C78          C  0.2390010  0.2043290  0.6545240    0.00000       Uiso       1.00
       C79          C  0.2281020  0.2371820  0.6533110    0.00000       Uiso       1.00
       C80          C  0.0109380  0.5250170  0.5030720    0.00000       Uiso       1.00
       C81          C  0.2609990  0.7043290  0.3454760    0.00000       Uiso       1.00
       C82          C  0.7281030  0.7371820  0.6533110    0.00000       Uiso       1.00
       C83          C  0.5109390  0.0250170  0.5030720    0.00000       Uiso       1.00
       C84          C  0.7609990  0.2043290  0.3454760    0.00000       Uiso       1.00
       O85          O  0.7917560  0.2382110  0.2224040    0.00000       Uiso       1.00
       O86          O  0.9788450  0.5564840  0.4807730    0.00000       Uiso       1.00
       O87          O  0.7295270  0.6741350  0.7806750    0.00000       Uiso       1.00
       O88          O  0.2917560  0.7382110  0.2224040    0.00000       Uiso       1.00
       O89          O  0.4788450  0.0564840  0.4807730    0.00000       Uiso       1.00
       O90          O  0.2295260  0.1741350  0.7806750    0.00000       Uiso       1.00
       O91          O  0.2082440  0.2382110  0.7775960    0.00000       Uiso       1.00
       O92          O  0.0211550  0.5564840  0.5192270    0.00000       Uiso       1.00
       O93          O  0.2704740  0.6741350  0.2193250    0.00000       Uiso       1.00
       O94          O  0.7082440  0.7382110  0.7775960    0.00000       Uiso       1.00
       O95          O  0.5211550  0.0564840  0.5192270    0.00000       Uiso       1.00
       O96          O  0.7704740  0.1741350  0.2193250    0.00000       Uiso       1.00
       C97          C  0.7858780  0.3781130  0.4900630    0.00000       Uiso       1.00
       C98          C  0.9113130  0.4717750  0.5085570    0.00000       Uiso       1.00
       C99          C  0.8022750  0.6125160  0.5175760    0.00000       Uiso       1.00
      C100          C  0.2858780  0.8781130  0.4900630    0.00000       Uiso       1.00
      C101          C  0.4113120  0.9717749  0.5085570    0.00000       Uiso       1.00
      C102          C  0.3022740  0.1125160  0.5175760    0.00000       Uiso       1.00
      C103          C  0.2141230  0.3781130  0.5099370    0.00000       Uiso       1.00
      C104          C  0.0886880  0.4717750  0.4914430    0.00000       Uiso       1.00
      C105          C  0.1977260  0.6125160  0.4824240    0.00000       Uiso       1.00
      C106          C  0.7141230  0.8781130  0.5099370    0.00000       Uiso       1.00
      C107          C  0.5886880  0.9717749  0.4914430    0.00000       Uiso       1.00
      C108          C  0.6977260  0.1125160  0.4824240    0.00000       Uiso       1.00
      C109          C  0.7943370  0.4126620  0.4913350    0.00000       Uiso       1.00
      C110          C  0.8898250  0.4668070  0.5017380    0.00000       Uiso       1.00
      C111          C  0.8152670  0.5824900  0.5186310    0.00000       Uiso       1.00
      C112          C  0.2943370  0.9126620  0.4913350    0.00000       Uiso       1.00
      C113          C  0.3898250  0.9668070  0.5017380    0.00000       Uiso       1.00
      C114          C  0.3152670  0.0824900  0.5186310    0.00000       Uiso       1.00
      C115          C  0.2056640  0.4126620  0.5086650    0.00000       Uiso       1.00
      C116          C  0.1101750  0.4668070  0.4982620    0.00000       Uiso       1.00
      C117          C  0.1847330  0.5824900  0.4813690    0.00000       Uiso       1.00
      C118          C  0.7056640  0.9126620  0.5086650    0.00000       Uiso       1.00
      C119          C  0.6101750  0.9668070  0.4982620    0.00000       Uiso       1.00
      C120          C  0.6847330  0.0824900  0.4813690    0.00000       Uiso       1.00
      H121          H  0.7703580  0.3753080  0.4796750    0.00000       Uiso       1.00
      H122          H  0.9206360  0.4501310  0.4930090    0.00000       Uiso       1.00
      H123          H  0.8086690  0.6371700  0.5276670    0.00000       Uiso       1.00
      H124          H  0.2703580  0.8753080  0.4796750    0.00000       Uiso       1.00
      H125          H  0.4206360  0.9501311  0.4930090    0.00000       Uiso       1.00
      H126          H  0.3086690  0.1371700  0.5276670    0.00000       Uiso       1.00
      H127          H  0.2296430  0.3753080  0.5203250    0.00000       Uiso       1.00
      H128          H  0.0793640  0.4501310  0.5069910    0.00000       Uiso       1.00
      H129          H  0.1913320  0.6371700  0.4723330    0.00000       Uiso       1.00
      H130          H  0.7296430  0.8753080  0.5203250    0.00000       Uiso       1.00
      H131          H  0.5793640  0.9501311  0.5069910    0.00000       Uiso       1.00
      H132          H  0.6913320  0.1371700  0.4723330    0.00000       Uiso       1.00
      H133          H  0.7845360  0.4336910  0.4818760    0.00000       Uiso       1.00
      H134          H  0.8843550  0.4415510  0.4813090    0.00000       Uiso       1.00
      H135          H  0.8306840  0.5866100  0.5294150    0.00000       Uiso       1.00
      H136          H  0.2845360  0.9336910  0.4818760    0.00000       Uiso       1.00
      H137          H  0.3843550  0.9415510  0.4813090    0.00000       Uiso       1.00
      H138          H  0.3306840  0.0866100  0.5294150    0.00000       Uiso       1.00
      H139          H  0.2154640  0.4336910  0.5181240    0.00000       Uiso       1.00
      H140          H  0.1156460  0.4415510  0.5186910    0.00000       Uiso       1.00
      H141          H  0.1693160  0.5866100  0.4705850    0.00000       Uiso       1.00
      H142          H  0.7154640  0.9336910  0.5181240    0.00000       Uiso       1.00
      H143          H  0.6156460  0.9415510  0.5186910    0.00000       Uiso       1.00
      H144          H  0.6693160  0.0866100  0.4705850    0.00000       Uiso       1.00
      C145          C  0.7730360  0.5741240  0.4897270    0.00000       Uiso       1.00
      C146          C  0.8197350  0.3536080  0.5164560    0.00000       Uiso       1.00
      C147          C  0.9061980  0.5346060  0.5565450    0.00000       Uiso       1.00
      C148          C  0.2730360  0.0741240  0.4897270    0.00000       Uiso       1.00
      C149          C  0.3197350  0.8536080  0.5164560    0.00000       Uiso       1.00
      C150          C  0.4061980  0.0346060  0.5565450    0.00000       Uiso       1.00
      C151          C  0.2269650  0.5741240  0.5102730    0.00000       Uiso       1.00
      C152          C  0.1802660  0.3536080  0.4835440    0.00000       Uiso       1.00
      C153          C  0.0938020  0.5346060  0.4434550    0.00000       Uiso       1.00
      C154          C  0.7269650  0.0741240  0.5102730    0.00000       Uiso       1.00
      C155          C  0.6802660  0.8536080  0.4835440    0.00000       Uiso       1.00
      C156          C  0.5938030  0.0346060  0.4434550    0.00000       Uiso       1.00
      C157          C  0.7859970  0.5442570  0.4913670    0.00000       Uiso       1.00
      C158          C  0.8281260  0.3880250  0.5171250    0.00000       Uiso       1.00
      C159          C  0.8848420  0.5296210  0.5484580    0.00000       Uiso       1.00
      C160          C  0.2859970  0.0442570  0.4913670    0.00000       Uiso       1.00
      C161          C  0.3281260  0.8880250  0.5171250    0.00000       Uiso       1.00
      C162          C  0.3848420  0.0296220  0.5484580    0.00000       Uiso       1.00
      C163          C  0.2140040  0.5442570  0.5086330    0.00000       Uiso       1.00
      C164          C  0.1718740  0.3880250  0.4828750    0.00000       Uiso       1.00
      C165          C  0.1151580  0.5296210  0.4515420    0.00000       Uiso       1.00
      C166          C  0.7140040  0.0442570  0.5086330    0.00000       Uiso       1.00
      C167          C  0.6718740  0.8880250  0.4828750    0.00000       Uiso       1.00
      C168          C  0.6151590  0.0296220  0.4515420    0.00000       Uiso       1.00
      H169          H  0.7576140  0.5698560  0.4788330    0.00000       Uiso       1.00
      H170          H  0.8296220  0.3326640  0.5259430    0.00000       Uiso       1.00
      H171          H  0.9115340  0.5599860  0.5770190    0.00000       Uiso       1.00
      H172          H  0.2576140  0.0698560  0.4788330    0.00000       Uiso       1.00
      H173          H  0.3296220  0.8326640  0.5259430    0.00000       Uiso       1.00
      H174          H  0.4115340  0.0599860  0.5770190    0.00000       Uiso       1.00
      H175          H  0.2423860  0.5698560  0.5211670    0.00000       Uiso       1.00
      H176          H  0.1703790  0.3326640  0.4740570    0.00000       Uiso       1.00
      H177          H  0.0884670  0.5599860  0.4229810    0.00000       Uiso       1.00
      H178          H  0.7423870  0.0698560  0.5211670    0.00000       Uiso       1.00
      H179          H  0.6703790  0.8326640  0.4740570    0.00000       Uiso       1.00
      H180          H  0.5884670  0.0599860  0.4229810    0.00000       Uiso       1.00
      H181          H  0.7793590  0.5197930  0.4813820    0.00000       Uiso       1.00
      H182          H  0.8436740  0.3903680  0.5273090    0.00000       Uiso       1.00
      H183          H  0.8757720  0.5515990  0.5637350    0.00000       Uiso       1.00
      H184          H  0.2793590  0.0197930  0.4813820    0.00000       Uiso       1.00
      H185          H  0.3436740  0.8903690  0.5273090    0.00000       Uiso       1.00
      H186          H  0.3757720  0.0515990  0.5637350    0.00000       Uiso       1.00
      H187          H  0.2206420  0.5197930  0.5186180    0.00000       Uiso       1.00
      H188          H  0.1563260  0.3903680  0.4726910    0.00000       Uiso       1.00
      H189          H  0.1242280  0.5515990  0.4362650    0.00000       Uiso       1.00
      H190          H  0.7206420  0.0197930  0.5186180    0.00000       Uiso       1.00
      H191          H  0.6563260  0.8903690  0.4726910    0.00000       Uiso       1.00
      H192          H  0.6242280  0.0515990  0.4362650    0.00000       Uiso       1.00
      C193          C  0.8204870  0.5168000  0.5078890    0.00000       Uiso       1.00
      C194          C  0.8245160  0.4534770  0.5066430    0.00000       Uiso       1.00
      C195          C  0.8541620  0.4911550  0.5152590    0.00000       Uiso       1.00
      C196          C  0.3204870  0.0168000  0.5078890    0.00000       Uiso       1.00
      C197          C  0.3245160  0.9534771  0.5066430    0.00000       Uiso       1.00
      C198          C  0.3541610  0.9911550  0.5152590    0.00000       Uiso       1.00
      C199          C  0.1795130  0.5168000  0.4921110    0.00000       Uiso       1.00
      C200          C  0.1754840  0.4534770  0.4933570    0.00000       Uiso       1.00
      C201          C  0.1458390  0.4911550  0.4847410    0.00000       Uiso       1.00
      C202          C  0.6795130  0.0168000  0.4921110    0.00000       Uiso       1.00
      C203          C  0.6754840  0.9534771  0.4933570    0.00000       Uiso       1.00
      C204          C  0.6458390  0.9911550  0.4847410    0.00000       Uiso       1.00
      C205          C  0.7807640  0.6091380  0.5030660    0.00000       Uiso       1.00
      C206          C  0.7983750  0.3475910  0.5028460    0.00000       Uiso       1.00
      C207          C  0.9200920  0.5058860  0.5373310    0.00000       Uiso       1.00
      C208          C  0.2807640  0.1091380  0.5030660    0.00000       Uiso       1.00
      C209          C  0.2983740  0.8475910  0.5028460    0.00000       Uiso       1.00
      C210          C  0.4200910  0.0058860  0.5373310    0.00000       Uiso       1.00
      C211          C  0.2192370  0.6091380  0.4969340    0.00000       Uiso       1.00
      C212          C  0.2016260  0.3475910  0.4971540    0.00000       Uiso       1.00
      C213          C  0.0799090  0.5058860  0.4626690    0.00000       Uiso       1.00
      C214          C  0.7192370  0.1091380  0.4969340    0.00000       Uiso       1.00
      C215          C  0.7016260  0.8475910  0.4971540    0.00000       Uiso       1.00
      C216          C  0.5799090  0.0058860  0.4626690    0.00000       Uiso       1.00
      C217          C  0.8075680  0.5473320  0.5059850    0.00000       Uiso       1.00
      C218          C  0.8157540  0.4187960  0.5048030    0.00000       Uiso       1.00
      C219          C  0.8758640  0.4955780  0.5214630    0.00000       Uiso       1.00
      C220          C  0.3075680  0.0473320  0.5059850    0.00000       Uiso       1.00
      C221          C  0.3157540  0.9187960  0.5048030    0.00000       Uiso       1.00
      C222          C  0.3758640  0.9955779  0.5214630    0.00000       Uiso       1.00
      C223          C  0.1924320  0.5473320  0.4940150    0.00000       Uiso       1.00
      C224          C  0.1842460  0.4187960  0.4951970    0.00000       Uiso       1.00
      C225          C  0.1241360  0.4955780  0.4785370    0.00000       Uiso       1.00
      C226          C  0.6924330  0.0473320  0.4940150    0.00000       Uiso       1.00
      C227          C  0.6842470  0.9187960  0.4951970    0.00000       Uiso       1.00
      C228          C  0.6241360  0.9955779  0.4785370    0.00000       Uiso       1.00
      N229          N  0.8412260  0.5194300  0.5134820    0.00000       Uiso       1.00
      N230          N  0.8127990  0.4832650  0.5046040    0.00000       Uiso       1.00
      N231          N  0.8451390  0.4586840  0.5115250    0.00000       Uiso       1.00
      N232          N  0.3412260  0.0194300  0.5134820    0.00000       Uiso       1.00
      N233          N  0.3127990  0.9832650  0.5046040    0.00000       Uiso       1.00
      N234          N  0.3451390  0.9586840  0.5115250    0.00000       Uiso       1.00
      N235          N  0.1587750  0.5194300  0.4865180    0.00000       Uiso       1.00
      N236          N  0.1872010  0.4832650  0.4953960    0.00000       Uiso       1.00
      N237          N  0.1548610  0.4586840  0.4884750    0.00000       Uiso       1.00
      N238          N  0.6587750  0.0194300  0.4865180    0.00000       Uiso       1.00
      N239          N  0.6872010  0.9832650  0.4953960    0.00000       Uiso       1.00
      N240          N  0.6548620  0.9586840  0.4884750    0.00000       Uiso       1.00
      H241          H  0.7985960  0.2165470  0.1338840    0.00000       Uiso       1.00
      H242          H  0.9863350  0.5788650  0.4662770    0.00000       Uiso       1.00
      H243          H  0.7153020  0.6745880  0.8704770    0.00000       Uiso       1.00
      H244          H  0.2985960  0.7165470  0.1338840    0.00000       Uiso       1.00
      H245          H  0.4863340  0.0788650  0.4662770    0.00000       Uiso       1.00
      H246          H  0.2153020  0.1745880  0.8704770    0.00000       Uiso       1.00
      H247          H  0.2014050  0.2165470  0.8661160    0.00000       Uiso       1.00
      H248          H  0.0136660  0.5788650  0.5337230    0.00000       Uiso       1.00
      H249          H  0.2846980  0.6745880  0.1295230    0.00000       Uiso       1.00
      H250          H  0.7014050  0.7165470  0.8661160    0.00000       Uiso       1.00
      H251          H  0.5136660  0.0788650  0.5337230    0.00000       Uiso       1.00
      H252          H  0.7846980  0.1745880  0.1295230    0.00000       Uiso       1.00
