data_DMTA-TPB1-4
_audit_creation_date              0000-00-00
_audit_creation_method            'LanYouShi'
_symmetry_space_group_name_H-M    'P1'
_cell_length_a                    37.2093010
_cell_length_b                    37.2015991
_cell_length_c                    3.5400000
_cell_angle_alpha                 90.0596008
_cell_angle_beta                  89.9841995
_cell_angle_gamma                 120.0514984
loop_
_atom_site_label
_atom_site_type_symbol
_atom_site_fract_x
_atom_site_fract_y
_atom_site_fract_z
_atom_site_U_iso_or_equiv
_atom_site_adp_type
_atom_site_occupancy
        C1          C  0.4629500  0.4957800 -0.2287400    0.00000       Uiso       1.00
        C2          C  0.4504500  0.4529500 -0.2436200    0.00000       Uiso       1.00
        C3          C  0.4796000  0.4403300 -0.1702800    0.00000       Uiso       1.00
        C4          C  0.5210500  0.4690700 -0.0732100    0.00000       Uiso       1.00
        C5          C  0.5334900  0.5118400 -0.0625300    0.00000       Uiso       1.00
        C6          C  0.5043100  0.5243200 -0.1305000    0.00000       Uiso       1.00
        O7          O  0.5731300  0.5426600  0.0542600    0.00000       Uiso       1.00
        C8          C  0.6068300  0.5503900 -0.1888700    0.00000       Uiso       1.00
        O9          O  0.4107200  0.4219300 -0.3602100    0.00000       Uiso       1.00
       C10          C  0.3761500  0.4169200 -0.1430300    0.00000       Uiso       1.00
       C11          C  0.5508500  0.4545100  0.0156300    0.00000       Uiso       1.00
       C12          C  0.4341100  0.5115500 -0.3155100    0.00000       Uiso       1.00
       N13          N  0.4447800  0.5498600 -0.2370300    0.00000       Uiso       1.00
       N14          N  0.5389800  0.4150200  0.0185600    0.00000       Uiso       1.00
       C15          C  0.4208000  0.5702200 -0.2853900    0.00000       Uiso       1.00
       C16          C  0.5664000  0.3986800  0.0750500    0.00000       Uiso       1.00
       C17          C  0.5500200  0.3577600  0.2017900    0.00000       Uiso       1.00
       C18          C  0.5756100  0.3403900  0.2439700    0.00000       Uiso       1.00
       C19          C  0.6180900  0.3634600  0.1550500    0.00000       Uiso       1.00
       C20          C  0.6343200  0.4043400  0.0232500    0.00000       Uiso       1.00
       C21          C  0.6087800  0.4216600 -0.0190600    0.00000       Uiso       1.00
       C22          C  0.4397700  0.6123400 -0.1916800    0.00000       Uiso       1.00
       C23          C  0.4181300  0.6339300 -0.2213100    0.00000       Uiso       1.00
       C24          C  0.3765600  0.6137600 -0.3456200    0.00000       Uiso       1.00
       C25          C  0.3573400  0.5713000 -0.4388500    0.00000       Uiso       1.00
       C26          C  0.3791500  0.5496500 -0.4091100    0.00000       Uiso       1.00
       C27          C  0.6457100  0.3453900  0.2048700    0.00000       Uiso       1.00
       C28          C  0.3536600  0.6370500 -0.3721500    0.00000       Uiso       1.00
       C29          C  0.6867100  0.3703900  0.3213700    0.00000       Uiso       1.00
       C30          C  0.3123000  0.6827600 -0.3874000    0.00000       Uiso       1.00
       C31          C  0.4864500  0.9502400 -0.2272900    0.00000       Uiso       1.00
       C32          C  0.5287100  0.9815900 -0.2095100    0.00000       Uiso       1.00
       C33          C  0.5397500  0.0224700 -0.1180100    0.00000       Uiso       1.00
       C34          C  0.5102200  0.0343100 -0.0257400    0.00000       Uiso       1.00
       C35          C  0.4676300  0.0037100 -0.0398700    0.00000       Uiso       1.00
       C36          C  0.4560700  0.9606500 -0.1357600    0.00000       Uiso       1.00
       O37          O  0.4353000  0.0109300  0.0630500    0.00000       Uiso       1.00
       C38          C  0.4319900  0.0420300 -0.1463500    0.00000       Uiso       1.00
       O39          O  0.5609200  0.9749900 -0.3282200    0.00000       Uiso       1.00
       C40          C  0.5701200  0.9493600 -0.0962100    0.00000       Uiso       1.00
       C41          C  0.5250500  0.0784700  0.0771300    0.00000       Uiso       1.00
       C42          C  0.4739000  0.9068000 -0.3321800    0.00000       Uiso       1.00
       N43          N  0.4359700  0.8803400 -0.4262200    0.00000       Uiso       1.00
       N44          N  0.5644900  0.1051500  0.0573300    0.00000       Uiso       1.00
       C45          C  0.4192000  0.8365900 -0.4914700    0.00000       Uiso       1.00
       C46          C  0.5855200  0.1492500  0.1151400    0.00000       Uiso       1.00
       C47          C  0.6264500  0.1718400 -0.0072700    0.00000       Uiso       1.00
       C48          C  0.6482800  0.2149300  0.0132500    0.00000       Uiso       1.00
       C49          C  0.6315700  0.2374500  0.1846800    0.00000       Uiso       1.00
       C50          C  0.5899400  0.2140900  0.3132400    0.00000       Uiso       1.00
       C51          C  0.5668700  0.1705600  0.2741800    0.00000       Uiso       1.00
       C52          C  0.3789500  0.8135600 -0.6375300    0.00000       Uiso       1.00
       C53          C  0.3591100  0.7702400 -0.6584500    0.00000       Uiso       1.00
       C54          C  0.3786200  0.7487900 -0.5206100    0.00000       Uiso       1.00
       C55          C  0.4199000  0.7721700 -0.3920000    0.00000       Uiso       1.00
       C56          C  0.4399900  0.8154900 -0.3788700    0.00000       Uiso       1.00
       C57          C  0.6550000  0.2846700  0.2086200    0.00000       Uiso       1.00
       C58          C  0.3548100  0.7027500 -0.4721800    0.00000       Uiso       1.00
       C59          C  0.6309400  0.3034300  0.1371500    0.00000       Uiso       1.00
       C60          C  0.3112300  0.6179600 -0.2807600    0.00000       Uiso       1.00
       C61          C  0.0504000  0.5546800  0.2497200    0.00000       Uiso       1.00
       C62          C  0.0222500  0.5691100  0.2026300    0.00000       Uiso       1.00
       C63          C  0.9778700  0.5419200  0.3012700    0.00000       Uiso       1.00
       C64          C  0.9636800  0.5019500  0.4457200    0.00000       Uiso       1.00
       C65          C  0.9919700  0.4876100  0.4883900    0.00000       Uiso       1.00
       C66          C  0.0359800  0.5146700  0.3915300    0.00000       Uiso       1.00
       O67          O  0.9803900  0.4498200  0.6638400    0.00000       Uiso       1.00
       C68          C  0.9563000  0.4140700  0.4340100    0.00000       Uiso       1.00
       O69          O  0.0337400  0.6053200 -0.0012300    0.00000       Uiso       1.00
       C70          C  0.0416400  0.6403000  0.2264200    0.00000       Uiso       1.00
       C71          C  0.9195900  0.4744000  0.5500100    0.00000       Uiso       1.00
       C72          C  0.0948900  0.5810000  0.1526600    0.00000       Uiso       1.00
       N73          N  0.1156700  0.5637900  0.0386300    0.00000       Uiso       1.00
       N74          N  0.8901000  0.4785300  0.3972800    0.00000       Uiso       1.00
       C75          C  0.1591300  0.5843600 -0.0499900    0.00000       Uiso       1.00
       C76          C  0.8463400  0.4494100  0.4315900    0.00000       Uiso       1.00
       C77          C  0.8179000  0.4589500  0.2676700    0.00000       Uiso       1.00
       C78          C  0.7756100  0.4288800  0.2453500    0.00000       Uiso       1.00
       C79          C  0.7600600  0.3886100  0.4007900    0.00000       Uiso       1.00
       C80          C  0.7886200  0.3818200  0.5991500    0.00000       Uiso       1.00
       C81          C  0.8310400  0.4102500  0.5995800    0.00000       Uiso       1.00
       C82          C  0.1752200  0.5608100 -0.2059900    0.00000       Uiso       1.00
       C83          C  0.2176500  0.5786900 -0.2804400    0.00000       Uiso       1.00
       C84          C  0.2452000  0.6205700 -0.1926600    0.00000       Uiso       1.00
       C85          C  0.2289500  0.6441400 -0.0312300    0.00000       Uiso       1.00
       C86          C  0.1864200  0.6263400  0.0369200    0.00000       Uiso       1.00
       C87          C  0.7146400  0.3553900  0.3499200    0.00000       Uiso       1.00
       C88          C  0.2901500  0.6405100 -0.2904300    0.00000       Uiso       1.00
       C89          C  0.6983700  0.3109600  0.3097100    0.00000       Uiso       1.00
       C90          C  0.3748400  0.6792300 -0.4746200    0.00000       Uiso       1.00
       C91          C  0.7238800  2.2909300  0.4282000    0.00000       Uiso       1.00
       C92          C  0.7698799  2.2446699  0.2896500    0.00000       Uiso       1.00
       C93          C  0.7863899  2.2900100  0.4061300    0.00000       Uiso       1.00
       C94          C  0.8318300  2.3133800  0.2804300    0.00000       Uiso       1.00
       C95          C  0.8409300  2.2793801  0.1450900    0.00000       Uiso       1.00
       N96          N  0.8051100  2.2383399  0.2270500    0.00000       Uiso       1.00
       C97          C  0.8822100  1.2845100  0.2694900    0.00000       Uiso       1.00
       O98          O  0.8843500  1.2516100  0.4378300    0.00000       Uiso       1.00
       O99          O  0.9141100  1.3171500  0.2063900    0.00000       Uiso       1.00
      O100          O  0.7633500  1.3077600  0.2560700    0.00000       Uiso       1.00
      H101          H  0.4694400  0.4075400 -0.1905400    0.00000       Uiso       1.00
      H102          H  0.5145400  0.5571200 -0.1085200    0.00000       Uiso       1.00
      H103          H  0.6143300  0.5775200 -0.3709500    0.00000       Uiso       1.00
      H104          H  0.6003400  0.5233000 -0.3673100    0.00000       Uiso       1.00
      H105          H  0.6346300  0.5585400 -0.0134500    0.00000       Uiso       1.00
      H106          H  0.3617800  0.3864600  0.0028400    0.00000       Uiso       1.00
      H107          H  0.3527100  0.4172600 -0.3338400    0.00000       Uiso       1.00
      H108          H  0.3849100  0.4417300  0.0689100    0.00000       Uiso       1.00
      H109          H  0.5829600  0.4773900  0.0834100    0.00000       Uiso       1.00
      H110          H  0.4041900  0.4908700 -0.4380200    0.00000       Uiso       1.00
      H111          H  0.5174200  0.3394300  0.2727800    0.00000       Uiso       1.00
      H112          H  0.5626500  0.3092900  0.3555000    0.00000       Uiso       1.00
      H113          H  0.6667400  0.4227000 -0.0548600    0.00000       Uiso       1.00
      H114          H  0.6219800  0.4524700 -0.1381600    0.00000       Uiso       1.00
      H115          H  0.4716000  0.6286200 -0.0912900    0.00000       Uiso       1.00
      H116          H  0.4337900  0.6662800 -0.1371100    0.00000       Uiso       1.00
      H117          H  0.3255400  0.5547200 -0.5386600    0.00000       Uiso       1.00
      H118          H  0.3631200  0.5171100 -0.4823300    0.00000       Uiso       1.00
      H119          H  0.6969400  0.4023900  0.3963000    0.00000       Uiso       1.00
      H120          H  0.2963600  0.7003900 -0.3908200    0.00000       Uiso       1.00
      H121          H  0.5724500  0.0453300 -0.1210100    0.00000       Uiso       1.00
      H122          H  0.4235000  0.9372600 -0.1386000    0.00000       Uiso       1.00
      H123          H  0.4015300  0.0273200 -0.2892000    0.00000       Uiso       1.00
      H124          H  0.4576600  0.0583100 -0.3530900    0.00000       Uiso       1.00
      H125          H  0.4329800  0.0655200  0.0516900    0.00000       Uiso       1.00
      H126          H  0.6003200  0.9690700  0.0462600    0.00000       Uiso       1.00
      H127          H  0.5730600  0.9265100 -0.2766900    0.00000       Uiso       1.00
      H128          H  0.5455900  0.9315200  0.1145900    0.00000       Uiso       1.00
      H129          H  0.5034800  0.0889100  0.1452000    0.00000       Uiso       1.00
      H130          H  0.4964400  0.8969300 -0.3197900    0.00000       Uiso       1.00
      H131          H  0.6412300  0.1559500 -0.1329700    0.00000       Uiso       1.00
      H132          H  0.6785200  0.2296900 -0.1054900    0.00000       Uiso       1.00
      H133          H  0.5752500  0.2294600  0.4485800    0.00000       Uiso       1.00
      H134          H  0.5352400  0.1538800  0.3768600    0.00000       Uiso       1.00
      H135          H  0.3626300  0.8293100 -0.7290200    0.00000       Uiso       1.00
      H136          H  0.3281400  0.7534700 -0.7769600    0.00000       Uiso       1.00
      H137          H  0.4360300  0.7571300 -0.2797100    0.00000       Uiso       1.00
      H138          H  0.4708200  0.8318500 -0.2594400    0.00000       Uiso       1.00
      H139          H  0.5994300  0.2847600  0.0333300    0.00000       Uiso       1.00
      H140          H  0.2949000  0.5859500 -0.1883300    0.00000       Uiso       1.00
      H141          H  0.9565700  0.5534000  0.2572500    0.00000       Uiso       1.00
      H142          H  0.0571400  0.5030600  0.4344000    0.00000       Uiso       1.00
      H143          H  0.9441900  0.3858800  0.6149800    0.00000       Uiso       1.00
      H144          H  0.9764000  0.4111600  0.2197500    0.00000       Uiso       1.00
      H145          H  0.9292200  0.4148400  0.3022100    0.00000       Uiso       1.00
      H146          H  0.0485500  0.6668500  0.0403000    0.00000       Uiso       1.00
      H147          H  0.0692500  0.6496000  0.4071900    0.00000       Uiso       1.00
      H148          H  0.0138600  0.6334500  0.3993800    0.00000       Uiso       1.00
      H149          H  0.9124800  0.4476900  0.7260000    0.00000       Uiso       1.00
      H150          H  0.1092300  0.6145300  0.1680100    0.00000       Uiso       1.00
      H151          H  0.8287600  0.4889500  0.1362600    0.00000       Uiso       1.00
      H152          H  0.7556200  0.4368500  0.0875200    0.00000       Uiso       1.00
      H153          H  0.7786700  0.3552300  0.7686700    0.00000       Uiso       1.00
      H154          H  0.8510600  0.4011800  0.7396500    0.00000       Uiso       1.00
      H155          H  0.1545300  0.5286300 -0.2784100    0.00000       Uiso       1.00
      H156          H  0.2284900  0.5602100 -0.4226800    0.00000       Uiso       1.00
      H157          H  0.2490800  0.6762800  0.0494300    0.00000       Uiso       1.00
      H158          H  0.1754500  0.6452500  0.1680600    0.00000       Uiso       1.00
      H159          H  0.4071500  0.6938100 -0.5567200    0.00000       Uiso       1.00
      H160          H  0.7079400  2.2576900  0.3917700    0.00000       Uiso       1.00
      H161          H  0.7268500  2.2947500  0.7257300    0.00000       Uiso       1.00
      H162          H  0.7509900  2.2376499  0.0361800    0.00000       Uiso       1.00
      H163          H  0.7477400  2.2212901  0.4885000    0.00000       Uiso       1.00
      H164          H  0.7864401  2.2917199  0.7055400    0.00000       Uiso       1.00
      H165          H  0.8537700  2.3330901  0.5014400    0.00000       Uiso       1.00
      H166          H  0.8368701  2.3365500  0.0617700    0.00000       Uiso       1.00
      H167          H  0.8432699  2.2813699 -0.1528700    0.00000       Uiso       1.00
      H168          H  0.8096200  2.2258201  0.4743600    0.00000       Uiso       1.00
      H169          H  0.9138700  1.2593400  0.5040400    0.00000       Uiso       1.00
