data_DMTA-TPB1-5
_audit_creation_date              0000-00-00
_audit_creation_method            'LanYouShi'
_symmetry_space_group_name_H-M    'P1'
_cell_length_a                    37.5012016
_cell_length_b                    37.4998016
_cell_length_c                    3.5400000
_cell_angle_alpha                 90.0056000
_cell_angle_beta                  90.0552979
_cell_angle_gamma                 120.0100021
loop_
_atom_site_label
_atom_site_type_symbol
_atom_site_fract_x
_atom_site_fract_y
_atom_site_fract_z
_atom_site_U_iso_or_equiv
_atom_site_adp_type
_atom_site_occupancy
        C1          C  0.4755700  0.5129900  0.2515500    0.00000       Uiso       1.00
        C2          C  0.4623900  0.4703200  0.2304300    0.00000       Uiso       1.00
        C3          C  0.4906500  0.4568100  0.2958900    0.00000       Uiso       1.00
        C4          C  0.5316700  0.4841200  0.4019100    0.00000       Uiso       1.00
        C5          C  0.5446300  0.5266500  0.4304300    0.00000       Uiso       1.00
        C6          C  0.5165700  0.5403000  0.3595200    0.00000       Uiso       1.00
        O7          O  0.5841600  0.5564500  0.5509300    0.00000       Uiso       1.00
        C8          C  0.6181200  0.5617000  0.3269100    0.00000       Uiso       1.00
        O9          O  0.4225600  0.4402100  0.1182300    0.00000       Uiso       1.00
       C10          C  0.3887900  0.4362200  0.3383600    0.00000       Uiso       1.00
       C11          C  0.5599600  0.4678200  0.4851100    0.00000       Uiso       1.00
       C12          C  0.4476500  0.5294200  0.1553000    0.00000       Uiso       1.00
       N13          N  0.4596700  0.5684400  0.1849200    0.00000       Uiso       1.00
       N14          N  0.5507300  0.4309200  0.3803300    0.00000       Uiso       1.00
       C15          C  0.4339400  0.5863400  0.1202100    0.00000       Uiso       1.00
       C16          C  0.5754200  0.4113700  0.4182800    0.00000       Uiso       1.00
       C17          C  0.5585400  0.3707300  0.2925300    0.00000       Uiso       1.00
       C18          C  0.5817700  0.3509200  0.2916300    0.00000       Uiso       1.00
       C19          C  0.6227400  0.3708900  0.4260700    0.00000       Uiso       1.00
       C20          C  0.6392700  0.4115000  0.5644500    0.00000       Uiso       1.00
       C21          C  0.6161800  0.4316900  0.5564300    0.00000       Uiso       1.00
       C22          C  0.4519700  0.6269600 -0.0087700    0.00000       Uiso       1.00
       C23          C  0.4281900  0.6457800 -0.0662000    0.00000       Uiso       1.00
       C24          C  0.3857200  0.6249600  0.0182700    0.00000       Uiso       1.00
       C25          C  0.3679700  0.5843200  0.1581900    0.00000       Uiso       1.00
       C26          C  0.3916300  0.5651400  0.2051100    0.00000       Uiso       1.00
       C27          C  0.6483900  0.3502500  0.3955900    0.00000       Uiso       1.00
       C28          C  0.3602700  0.6452700 -0.0487600    0.00000       Uiso       1.00
       C29          C  0.6910300  0.3732300  0.3465400    0.00000       Uiso       1.00
       C30          C  0.3140500  0.6835500 -0.2248800    0.00000       Uiso       1.00
       C31          C  0.4774600  0.9569000 -0.1654600    0.00000       Uiso       1.00
       C32          C  0.5177500  0.9883600 -0.2814400    0.00000       Uiso       1.00
       C33          C  0.5280400  0.0298900 -0.2629600    0.00000       Uiso       1.00
       C34          C  0.5007200  0.0424900 -0.1352100    0.00000       Uiso       1.00
       C35          C  0.4607800  0.0126900 -0.0329400    0.00000       Uiso       1.00
       C36          C  0.4490300  0.9688700 -0.0510000    0.00000       Uiso       1.00
       O37          O  0.4353200  0.0236400  0.1632600    0.00000       Uiso       1.00
       C38          C  0.4062200  0.0272000 -0.0681900    0.00000       Uiso       1.00
       O39          O  0.5487800  0.9826900 -0.4493400    0.00000       Uiso       1.00
       C40          C  0.5516200  0.9467000 -0.3924000    0.00000       Uiso       1.00
       C41          C  0.5152700  0.0869800 -0.0968500    0.00000       Uiso       1.00
       C42          C  0.4639300  0.9123000 -0.1419400    0.00000       Uiso       1.00
       N43          N  0.4256100  0.8843500 -0.1880500    0.00000       Uiso       1.00
       N44          N  0.5509900  0.1103500  0.0530800    0.00000       Uiso       1.00
       C45          C  0.4097700  0.8406300 -0.1633300    0.00000       Uiso       1.00
       C46          C  0.5730000  0.1541500  0.1094900    0.00000       Uiso       1.00
       C47          C  0.6116500  0.1709100  0.2742400    0.00000       Uiso       1.00
       C48          C  0.6363500  0.2131900  0.3181400    0.00000       Uiso       1.00
       C49          C  0.6240300  0.2409000  0.2030500    0.00000       Uiso       1.00
       C50          C  0.5839800  0.2237300  0.0448200    0.00000       Uiso       1.00
       C51          C  0.5587300  0.1808100 -0.0037000    0.00000       Uiso       1.00
       C52          C  0.3687900  0.8151600 -0.0553400    0.00000       Uiso       1.00
       C53          C  0.3519100  0.7724800 -0.0348700    0.00000       Uiso       1.00
       C54          C  0.3752600  0.7539600 -0.1360600    0.00000       Uiso       1.00
       C55          C  0.4165000  0.7796300 -0.2461900    0.00000       Uiso       1.00
       C56          C  0.4336700  0.8225400 -0.2576400    0.00000       Uiso       1.00
       C57          C  0.6508800  0.2867900  0.2781300    0.00000       Uiso       1.00
       C58          C  0.3559700  0.7081000 -0.1364800    0.00000       Uiso       1.00
       C59          C  0.6296200  0.3073700  0.3827200    0.00000       Uiso       1.00
       C60          C  0.3174500  0.6216000 -0.1194600    0.00000       Uiso       1.00
       C61          C  0.0456100  0.5300300 -0.3190800    0.00000       Uiso       1.00
       C62          C  0.0179100  0.5438200 -0.4016000    0.00000       Uiso       1.00
       C63          C  0.9733300  0.5169100 -0.3226300    0.00000       Uiso       1.00
       C64          C  0.9579000  0.4765500 -0.1911500    0.00000       Uiso       1.00
       C65          C  0.9854800  0.4612400 -0.1514300    0.00000       Uiso       1.00
       C66          C  0.0301100  0.4894200 -0.1989200    0.00000       Uiso       1.00
       O67          O  0.9737600  0.4221700 -0.0055400    0.00000       Uiso       1.00
       C68          C  0.9459700  0.3873400 -0.2268300    0.00000       Uiso       1.00
       O69          O  0.0312700  0.5801300 -0.6067100    0.00000       Uiso       1.00
       C70          C  0.0329500  0.6131900 -0.3975400    0.00000       Uiso       1.00
       C71          C  0.9136600  0.4506600 -0.0914800    0.00000       Uiso       1.00
       C72          C  0.0906700  0.5588000 -0.3367600    0.00000       Uiso       1.00
       N73          N  0.1165100  0.5451700 -0.3181500    0.00000       Uiso       1.00
       N74          N  0.8887700  0.4652300 -0.0523200    0.00000       Uiso       1.00
       C75          C  0.1607000  0.5700800 -0.2998900    0.00000       Uiso       1.00
       C76          C  0.8459900  0.4398500  0.0546500    0.00000       Uiso       1.00
       C77          C  0.8166100  0.4505800 -0.0551200    0.00000       Uiso       1.00
       C78          C  0.7743200  0.4232100  0.0062700    0.00000       Uiso       1.00
       C79          C  0.7604000  0.3846800  0.1859800    0.00000       Uiso       1.00
       C80          C  0.7906300  0.3765800  0.3190200    0.00000       Uiso       1.00
       C81          C  0.8323500  0.4029400  0.2525600    0.00000       Uiso       1.00
       C82          C  0.1846500  0.5525500 -0.4032300    0.00000       Uiso       1.00
       C83          C  0.2277400  0.5752700 -0.3779700    0.00000       Uiso       1.00
       C84          C  0.2478700  0.6159300 -0.2391000    0.00000       Uiso       1.00
       C85          C  0.2234600  0.6330100 -0.1269500    0.00000       Uiso       1.00
       C86          C  0.1805200  0.6105400 -0.1591100    0.00000       Uiso       1.00
       C87          C  0.7151100  0.3549800  0.2617500    0.00000       Uiso       1.00
       C88          C  0.2938100  0.6404800 -0.1979400    0.00000       Uiso       1.00
       C89          C  0.6953200  0.3104300  0.2296300    0.00000       Uiso       1.00
       C90          C  0.3787000  0.6886500 -0.0454900    0.00000       Uiso       1.00
       C91          C  0.7177600  2.2911401  0.0210800    0.00000       Uiso       1.00
       C92          C  0.7386700  1.2664100  0.1904600    0.00000       Uiso       1.00
       N93          N  0.7191200  1.2228700  0.0756500    0.00000       Uiso       1.00
       C94          C  0.7512900  1.2126400 -0.0427800    0.00000       Uiso       1.00
       N95          N  0.7912700  1.2509000  0.0382500    0.00000       Uiso       1.00
       C96          C  0.7824300  1.2813500  0.1053000    0.00000       Uiso       1.00
       C97          C  0.7411900  1.1668700  0.1272400    0.00000       Uiso       1.00
       C98          C  0.6964500  1.1485900  0.3094400    0.00000       Uiso       1.00
       C99          C  0.7828500  1.1759200  0.3104800    0.00000       Uiso       1.00
      C100          C  0.7315900  1.1244000 -0.0605100    0.00000       Uiso       1.00
      C101          C  0.8336300  1.2635300 -0.0902100    0.00000       Uiso       1.00
      O102          O  0.8088100  1.3175900  0.0931700    0.00000       Uiso       1.00
      H103          H  0.4799900  0.4242200  0.2694400    0.00000       Uiso       1.00
      H104          H  0.5274000  0.5729400  0.3851600    0.00000       Uiso       1.00
      H105          H  0.6312800  0.5914400  0.1741400    0.00000       Uiso       1.00
      H106          H  0.6095500  0.5365100  0.1203900    0.00000       Uiso       1.00
      H107          H  0.6423400  0.5625800  0.5133700    0.00000       Uiso       1.00
      H108          H  0.3737300  0.4058400  0.4814200    0.00000       Uiso       1.00
      H109          H  0.3658100  0.4374200  0.1494300    0.00000       Uiso       1.00
      H110          H  0.3981800  0.4608000  0.5528000    0.00000       Uiso       1.00
      H111          H  0.5887800  0.4874100  0.6249000    0.00000       Uiso       1.00
      H112          H  0.4169500  0.5086200  0.0529100    0.00000       Uiso       1.00
      H113          H  0.5275100  0.3547600  0.1801300    0.00000       Uiso       1.00
      H114          H  0.5678800  0.3204900  0.1675700    0.00000       Uiso       1.00
      H115          H  0.6700900  0.4279000  0.6812299    0.00000       Uiso       1.00
      H116          H  0.6306300  0.4630900  0.6571400    0.00000       Uiso       1.00
      H117          H  0.4845700  0.6439500 -0.0730600    0.00000       Uiso       1.00
      H118          H  0.4432100  0.6765200 -0.1839400    0.00000       Uiso       1.00
      H119          H  0.3359800  0.5674000  0.2418200    0.00000       Uiso       1.00
      H120          H  0.3771900  0.5343000  0.3208900    0.00000       Uiso       1.00
      H121          H  0.7057700  0.4063600  0.3594100    0.00000       Uiso       1.00
      H122          H  0.2969300  0.6981800 -0.3164900    0.00000       Uiso       1.00
      H123          H  0.5586400  0.0532000 -0.3516200    0.00000       Uiso       1.00
      H124          H  0.4186100  0.9462100  0.0463600    0.00000       Uiso       1.00
      H125          H  0.3879800 -0.0012300 -0.2381300    0.00000       Uiso       1.00
      H126          H  0.4221300  0.0546900 -0.2519100    0.00000       Uiso       1.00
      H127          H  0.3846200  0.0313600  0.1153900    0.00000       Uiso       1.00
      H128          H  0.5809700  0.9518400 -0.5161900    0.00000       Uiso       1.00
      H129          H  0.5260600  0.9195700 -0.5318600    0.00000       Uiso       1.00
      H130          H  0.5533700  0.9410900 -0.0940200    0.00000       Uiso       1.00
      H131          H  0.4964100  0.0993600 -0.1940200    0.00000       Uiso       1.00
      H132          H  0.4850000  0.9026900 -0.0476600    0.00000       Uiso       1.00
      H133          H  0.6222700  0.1506900  0.3762700    0.00000       Uiso       1.00
      H134          H  0.6649200  0.2237700  0.4476700    0.00000       Uiso       1.00
      H135          H  0.5721200  0.2433200 -0.0469900    0.00000       Uiso       1.00
      H136          H  0.5287400  0.1689900 -0.1329300    0.00000       Uiso       1.00
      H137          H  0.3500100  0.8285400  0.0194500    0.00000       Uiso       1.00
      H138          H  0.3205400  0.7539400  0.0640300    0.00000       Uiso       1.00
      H139          H  0.4352300  0.7665500 -0.3330400    0.00000       Uiso       1.00
      H140          H  0.4651300  0.8413400 -0.3523200    0.00000       Uiso       1.00
      H141          H  0.5970600  0.2894600  0.4434800    0.00000       Uiso       1.00
      H142          H  0.3023000  0.5884000 -0.1129900    0.00000       Uiso       1.00
      H143          H  0.9527000  0.5288000 -0.3731200    0.00000       Uiso       1.00
      H144          H  0.0508300  0.4781400 -0.1290700    0.00000       Uiso       1.00
      H145          H  0.9208700  0.3645600 -0.0450900    0.00000       Uiso       1.00
      H146          H  0.9628000  0.3726100 -0.3448400    0.00000       Uiso       1.00
      H147          H  0.9314300  0.3954700 -0.4562900    0.00000       Uiso       1.00
      H148          H  0.0385800  0.6385000 -0.5935600    0.00000       Uiso       1.00
      H149          H  0.0593700  0.6251800 -0.2004400    0.00000       Uiso       1.00
      H150          H  0.0036600  0.6036700 -0.2448400    0.00000       Uiso       1.00
      H151          H  0.9017300  0.4183100 -0.0528300    0.00000       Uiso       1.00
      H152          H  0.1017400  0.5915800 -0.3532800    0.00000       Uiso       1.00
      H153          H  0.8262100  0.4790900 -0.2056200    0.00000       Uiso       1.00
      H154          H  0.7525800  0.4316400 -0.1018900    0.00000       Uiso       1.00
      H155          H  0.7827600  0.3495300  0.4733400    0.00000       Uiso       1.00
      H156          H  0.8538800  0.3944200  0.3654300    0.00000       Uiso       1.00
      H157          H  0.1698400  0.5212800 -0.5091600    0.00000       Uiso       1.00
      H158          H  0.2451800  0.5610900 -0.4725400    0.00000       Uiso       1.00
      H159          H  0.2374200  0.6633900 -0.0013100    0.00000       Uiso       1.00
      H160          H  0.1629200  0.6243400 -0.0592600    0.00000       Uiso       1.00
      H161          H  0.4106000  0.7074900  0.0372800    0.00000       Uiso       1.00
      H162          H  0.7411200  2.3157301 -0.1438100    0.00000       Uiso       1.00
      H163          H  0.6947199  2.2713001 -0.1805000    0.00000       Uiso       1.00
      H164          H  0.7382600  1.2670799  0.4869200    0.00000       Uiso       1.00
      H165          H  0.6972600  1.2150800 -0.1333900    0.00000       Uiso       1.00
      H166          H  0.7504600  1.2118500 -0.3413600    0.00000       Uiso       1.00
      H167          H  0.6772700  1.1152000  0.3641700    0.00000       Uiso       1.00
      H168          H  0.6753800  1.1489600  0.0947100    0.00000       Uiso       1.00
      H169          H  0.6925600  1.1655999  0.5350600    0.00000       Uiso       1.00
      H170          H  0.8047900  1.1838800  0.0787900    0.00000       Uiso       1.00
      H171          H  0.7873900  1.1505400  0.3995300    0.00000       Uiso       1.00
      H172          H  0.7971200  1.2010000  0.5076200    0.00000       Uiso       1.00
      H173          H  0.7257100  1.1027100  0.1777700    0.00000       Uiso       1.00
      H174          H  0.7563000  1.1199900 -0.1669500    0.00000       Uiso       1.00
      H175          H  0.7020900  1.1047100 -0.1959300    0.00000       Uiso       1.00
      H176          H  0.8362700  1.2677900 -0.3927900    0.00000       Uiso       1.00
      H177          H  0.8454200  1.2434400  0.0003500    0.00000       Uiso       1.00
      H178          H  0.8565100  1.2939100  0.0282500    0.00000       Uiso       1.00
