data_DMTA-TPB2
_audit_creation_date              0000-00-00
_audit_creation_method            'LanYouShi'
_symmetry_space_group_name_H-M    'P1'
_cell_length_a                    37.3008003
_cell_length_b                    37.3051987
_cell_length_c                    3.5300000
_cell_angle_alpha                 90.0123978
_cell_angle_beta                  89.9865036
_cell_angle_gamma                 120.0155029
loop_
_atom_site_label
_atom_site_type_symbol
_atom_site_fract_x
_atom_site_fract_y
_atom_site_fract_z
_atom_site_U_iso_or_equiv
_atom_site_adp_type
_atom_site_occupancy
        C1          C  0.4770100  0.5175900  0.2106100    0.00000       Uiso       1.00
        C2          C  0.4633800  0.4747800  0.1706500    0.00000       Uiso       1.00
        C3          C  0.4912100  0.4604800  0.2323700    0.00000       Uiso       1.00
        C4          C  0.5319200  0.4871600  0.3546800    0.00000       Uiso       1.00
        C5          C  0.5448400  0.5291800  0.4153000    0.00000       Uiso       1.00
        C6          C  0.5174700  0.5440100  0.3432800    0.00000       Uiso       1.00
        O7          O  0.5831400  0.5549400  0.5881700    0.00000       Uiso       1.00
        C8          C  0.6117200  0.5902100  0.3742000    0.00000       Uiso       1.00
        O9          O  0.4237200  0.4456100  0.0409600    0.00000       Uiso       1.00
       C10          C  0.3892000  0.4400200  0.2624800    0.00000       Uiso       1.00
       C11          C  0.5613400  0.4716500  0.4103000    0.00000       Uiso       1.00
       C12          C  0.4498700  0.5349300  0.1124600    0.00000       Uiso       1.00
       N13          N  0.4624100  0.5741300  0.1525600    0.00000       Uiso       1.00
       N14          N  0.5502600  0.4331800  0.3411700    0.00000       Uiso       1.00
       C15          C  0.4368200  0.5923300  0.0883400    0.00000       Uiso       1.00
       C16          C  0.5755900  0.4140400  0.3626500    0.00000       Uiso       1.00
       C17          C  0.5579000  0.3724900  0.2537800    0.00000       Uiso       1.00
       C18          C  0.5814300  0.3527600  0.2458900    0.00000       Uiso       1.00
       C19          C  0.6234600  0.3741300  0.3510100    0.00000       Uiso       1.00
       C20          C  0.6409100  0.4155600  0.4710700    0.00000       Uiso       1.00
       C21          C  0.6174200  0.4353700  0.4760600    0.00000       Uiso       1.00
       C22          C  0.4549200  0.6330200 -0.0447100    0.00000       Uiso       1.00
       C23          C  0.4309000  0.6517900 -0.1033300    0.00000       Uiso       1.00
       C24          C  0.3882500  0.6308400 -0.0147700    0.00000       Uiso       1.00
       C25          C  0.3707300  0.5903200  0.1333500    0.00000       Uiso       1.00
       C26          C  0.3945100  0.5711900  0.1794100    0.00000       Uiso       1.00
       C27          C  0.6494300  0.3540100  0.3178100    0.00000       Uiso       1.00
       C28          C  0.3621100  0.6505000 -0.0877000    0.00000       Uiso       1.00
       C29          C  0.6904400  0.3769200  0.1991000    0.00000       Uiso       1.00
       C30          C  0.3123800  0.6872900 -0.2629000    0.00000       Uiso       1.00
       C31          C  0.4925600  0.9641400 -0.2698500    0.00000       Uiso       1.00
       C32          C  0.5340200  0.9971201 -0.2799700    0.00000       Uiso       1.00
       C33          C  0.5425000  0.0373900 -0.2003400    0.00000       Uiso       1.00
       C34          C  0.5109800  0.0460800 -0.1020500    0.00000       Uiso       1.00
       C35          C  0.4694000  0.0134400 -0.1115200    0.00000       Uiso       1.00
       C36          C  0.4609700  0.9731900 -0.1864400    0.00000       Uiso       1.00
       O37          O  0.4357600  0.0181400 -0.0039100    0.00000       Uiso       1.00
       C38          C  0.4274700  0.0449400 -0.2296000    0.00000       Uiso       1.00
       O39          O  0.5675900  0.9923499 -0.3894900    0.00000       Uiso       1.00
       C40          C  0.5756400  0.9649100 -0.1711400    0.00000       Uiso       1.00
       C41          C  0.5226200  0.0887200  0.0182100    0.00000       Uiso       1.00
       C42          C  0.4809000  0.9202400 -0.3328100    0.00000       Uiso       1.00
       N43          N  0.4460600  0.8917900 -0.1933400    0.00000       Uiso       1.00
       N44          N  0.5602400  0.1138500  0.1271700    0.00000       Uiso       1.00
       C45          C  0.4272500  0.8476500 -0.1956000    0.00000       Uiso       1.00
       C46          C  0.5780600  0.1566800  0.2266400    0.00000       Uiso       1.00
       C47          C  0.6149400  0.1747000  0.4287700    0.00000       Uiso       1.00
       C48          C  0.6369100  0.2172200  0.4882700    0.00000       Uiso       1.00
       C49          C  0.6272700  0.2440300  0.2974900    0.00000       Uiso       1.00
       C50          C  0.5878000  0.2254900  0.1210300    0.00000       Uiso       1.00
       C51          C  0.5630900  0.1821900  0.0902400    0.00000       Uiso       1.00
       C52          C  0.3892800  0.8260200 -0.0149400    0.00000       Uiso       1.00
       C53          C  0.3690200  0.7832700  0.0069500    0.00000       Uiso       1.00
       C54          C  0.3817400  0.7598100 -0.1975500    0.00000       Uiso       1.00
       C55          C  0.4218600  0.7816300 -0.3612700    0.00000       Uiso       1.00
       C56          C  0.4448100  0.8253800 -0.3567600    0.00000       Uiso       1.00
       C57          C  0.6546100  0.2906700  0.3105700    0.00000       Uiso       1.00
       C58          C  0.3566300  0.7131400 -0.1896800    0.00000       Uiso       1.00
       C59          C  0.6327000  0.3117300  0.3850300    0.00000       Uiso       1.00
       C60          C  0.3196100  0.6261100 -0.1538300    0.00000       Uiso       1.00
       C61          C  0.0475500  0.5248500 -0.2536800    0.00000       Uiso       1.00
       C62          C  0.0214200  0.5423600 -0.2579400    0.00000       Uiso       1.00
       C63          C  0.9791500  0.5172400 -0.1833700    0.00000       Uiso       1.00
       C64          C  0.9619000  0.4752000 -0.0902500    0.00000       Uiso       1.00
       C65          C  0.9879600  0.4576200 -0.0883200    0.00000       Uiso       1.00
       C66          C  0.0302500  0.4827400 -0.1627700    0.00000       Uiso       1.00
       O67          O  0.9745000  0.4165300  0.0193300    0.00000       Uiso       1.00
       C68          C  0.9427700  0.3842100 -0.2032700    0.00000       Uiso       1.00
       O69          O  0.0348300  0.5834500 -0.3651700    0.00000       Uiso       1.00
       C70          C  0.0662900  0.6158100 -0.1409100    0.00000       Uiso       1.00
       C71          C  0.9171900  0.4503500  0.0009500    0.00000       Uiso       1.00
       C72          C  0.0925200  0.5500400 -0.3329300    0.00000       Uiso       1.00
       N73          N  0.1176500  0.5360600 -0.2678100    0.00000       Uiso       1.00
       N74          N  0.8924500  0.4652900 -0.0356800    0.00000       Uiso       1.00
       C75          C  0.1618100  0.5625700 -0.2692800    0.00000       Uiso       1.00
       C76          C  0.8483200  0.4398700 -0.0022400    0.00000       Uiso       1.00
       C77          C  0.8248501  0.4555200  0.1620900    0.00000       Uiso       1.00
       C78          C  0.7819800  0.4298200  0.2108400    0.00000       Uiso       1.00
       C79          C  0.7612500  0.3884500  0.0760100    0.00000       Uiso       1.00
       C80          C  0.7850500  0.3755000 -0.1285000    0.00000       Uiso       1.00
       C81          C  0.8278900  0.3999200 -0.1545800    0.00000       Uiso       1.00
       C82          C  0.1877200  0.5485000 -0.4101500    0.00000       Uiso       1.00
       C83          C  0.2308900  0.5747700 -0.4098200    0.00000       Uiso       1.00
       C84          C  0.2487800  0.6149300 -0.2523600    0.00000       Uiso       1.00
       C85          C  0.2224500  0.6268300 -0.0843400    0.00000       Uiso       1.00
       C86          C  0.1796500  0.6018500 -0.1029500    0.00000       Uiso       1.00
       C87          C  0.7158300  0.3592800  0.1609900    0.00000       Uiso       1.00
       C88          C  0.2946000  0.6434700 -0.2296700    0.00000       Uiso       1.00
       C89          C  0.6984400  0.3153600  0.2114900    0.00000       Uiso       1.00
       C90          C  0.3795300  0.6936100 -0.0939000    0.00000       Uiso       1.00
       O91          O  0.7260400  2.3005800  0.1194800    0.00000       Uiso       1.00
       C92          C  0.7256800  2.2650101  0.2717000    0.00000       Uiso       1.00
       C93          C  0.7649899  2.2622800  0.1676600    0.00000       Uiso       1.00
       N94          N  0.7656599  2.2254801  0.3084300    0.00000       Uiso       1.00
       C95          C  0.8069000  2.2355399  0.4347500    0.00000       Uiso       1.00
       C96          C  0.8344399  2.2822800  0.3987700    0.00000       Uiso       1.00
       C97          C  0.8065699  2.2995400  0.2810100    0.00000       Uiso       1.00
       C98          C  0.7347000  2.1849301  0.2650100    0.00000       Uiso       1.00
       O99          O  0.7449901  2.1530001  0.2687000    0.00000       Uiso       1.00
      C100          C  0.7149800  2.1082499  0.3627200    0.00000       Uiso       1.00
      C101          C  0.6639501  2.0890100  0.2925300    0.00000       Uiso       1.00
      C102          C  0.7339199  2.0762000  0.2921400    0.00000       Uiso       1.00
      C103          C  0.7175701  2.1111200  0.6885700    0.00000       Uiso       1.00
      O104          O  0.6991500  2.1766000  0.2119400    0.00000       Uiso       1.00
      O105          O  1.2857200  1.7005399 -0.4274900    0.00000       Uiso       1.00
      C106          C  1.2812901  1.7332900 -0.2608000    0.00000       Uiso       1.00
      C107          C  1.2427900  1.7373900 -0.3806300    0.00000       Uiso       1.00
      C108          C  1.2000600  1.7017900 -0.2724300    0.00000       Uiso       1.00
      C109          C  1.1737300  1.7213900 -0.1861900    0.00000       Uiso       1.00
      C110          C  1.2037700  1.7670300 -0.1091600    0.00000       Uiso       1.00
      N111          N  1.2444000  1.7756400 -0.2439000    0.00000       Uiso       1.00
      C112          C  1.2757200  1.8150300 -0.3416800    0.00000       Uiso       1.00
      O113          O  1.2768700  1.8515700 -0.2025900    0.00000       Uiso       1.00
      C114          C  1.2849000  1.8849500 -0.4608400    0.00000       Uiso       1.00
      C115          C  1.2408700  1.8676300 -0.6378600    0.00000       Uiso       1.00
      C116          C  1.3290900  1.8993100 -0.6400500    0.00000       Uiso       1.00
      C117          C  1.2923200  1.9276500 -0.3063700    0.00000       Uiso       1.00
      O118          O  1.3039700  1.8182700 -0.5374500    0.00000       Uiso       1.00
      H119          H  0.4805900  0.4280100  0.1848700    0.00000       Uiso       1.00
      H120          H  0.5277000  0.5762300  0.3991700    0.00000       Uiso       1.00
      H121          H  0.5966700  0.6055500  0.2273800    0.00000       Uiso       1.00
      H122          H  0.6279600  0.5807600  0.1694400    0.00000       Uiso       1.00
      H123          H  0.6355200  0.6132200  0.5674100    0.00000       Uiso       1.00
      H124          H  0.3749800  0.4093600  0.4033500    0.00000       Uiso       1.00
      H125          H  0.3656000  0.4404200  0.0745500    0.00000       Uiso       1.00
      H126          H  0.3976500  0.4644700  0.4784400    0.00000       Uiso       1.00
      H127          H  0.5926100  0.4934200  0.4965000    0.00000       Uiso       1.00
      H128          H  0.4194500  0.5148300 -0.0030300    0.00000       Uiso       1.00
      H129          H  0.5258800  0.3556100  0.1634400    0.00000       Uiso       1.00
      H130          H  0.5669800  0.3212300  0.1431000    0.00000       Uiso       1.00
      H131          H  0.6728700  0.4328100  0.5622000    0.00000       Uiso       1.00
      H132          H  0.6324300  0.4672000  0.5685000    0.00000       Uiso       1.00
      H133          H  0.4875900  0.6498800 -0.1132900    0.00000       Uiso       1.00
      H134          H  0.4458800  0.6823800 -0.2272900    0.00000       Uiso       1.00
      H135          H  0.3388000  0.5733300  0.2239300    0.00000       Uiso       1.00
      H136          H  0.3801000  0.5403600  0.2990000    0.00000       Uiso       1.00
      H137          H  0.7025400  0.4090600  0.1248100    0.00000       Uiso       1.00
      H138          H  0.5744600  0.0621100 -0.2104200    0.00000       Uiso       1.00
      H139          H  0.4289100  0.9486400 -0.1783800    0.00000       Uiso       1.00
      H140          H  0.3975200  0.0261800 -0.3783000    0.00000       Uiso       1.00
      H141          H  0.4521400  0.0628000 -0.4396900    0.00000       Uiso       1.00
      H142          H  0.4245700  0.0672900 -0.0434600    0.00000       Uiso       1.00
      H143          H  0.5777600  0.9424100 -0.3615500    0.00000       Uiso       1.00
      H144          H  0.5513800  0.9472400  0.0419800    0.00000       Uiso       1.00
      H145          H  0.6059000  0.9831500 -0.0259500    0.00000       Uiso       1.00
      H146          H  0.5001400  0.0987900  0.0246000    0.00000       Uiso       1.00
      H147          H  0.5013100  0.9121200 -0.4778500    0.00000       Uiso       1.00
      H148          H  0.6258300  0.1554400  0.5547500    0.00000       Uiso       1.00
      H149          H  0.6609000  0.2287500  0.6905700    0.00000       Uiso       1.00
      H150          H  0.5768700  0.2443800 -0.0113500    0.00000       Uiso       1.00
      H151          H  0.5345000  0.1693400 -0.0683400    0.00000       Uiso       1.00
      H152          H  0.3765200  0.8426800  0.1303700    0.00000       Uiso       1.00
      H153          H  0.3435800  0.7684400  0.1923800    0.00000       Uiso       1.00
      H154          H  0.4349600  0.7650100 -0.5012500    0.00000       Uiso       1.00
      H155          H  0.4749200  0.8412500 -0.4903000    0.00000       Uiso       1.00
      H156          H  0.6009900  0.2943500  0.4827900    0.00000       Uiso       1.00
      H157          H  0.3053600  0.5928600 -0.1440600    0.00000       Uiso       1.00
      H158          H  0.9597700  0.5312200 -0.1943600    0.00000       Uiso       1.00
      H159          H  0.0496500  0.4688000 -0.1514600    0.00000       Uiso       1.00
      H160          H  0.9558600  0.3671200 -0.3513900    0.00000       Uiso       1.00
      H161          H  0.9290100  0.3957800 -0.4135000    0.00000       Uiso       1.00
      H162          H  0.9175800  0.3620900 -0.0152300    0.00000       Uiso       1.00
      H163          H  0.0915100  0.6380700 -0.3279000    0.00000       Uiso       1.00
      H164          H  0.0800600  0.6043300  0.0702800    0.00000       Uiso       1.00
      H165          H  0.0529400  0.6327100  0.0064500    0.00000       Uiso       1.00
      H166          H  0.9044500  0.4186800  0.0916200    0.00000       Uiso       1.00
      H167          H  0.1052200  0.5815900 -0.4276500    0.00000       Uiso       1.00
      H168          H  0.8400600  0.4867900  0.2724200    0.00000       Uiso       1.00
      H169          H  0.7657500  0.4420400  0.3708400    0.00000       Uiso       1.00
      H170          H  0.7705600  0.3474800 -0.2896800    0.00000       Uiso       1.00
      H171          H  0.8449900  0.3884900 -0.3123600    0.00000       Uiso       1.00
      H172          H  0.1744700  0.5178300 -0.5317000    0.00000       Uiso       1.00
      H173          H  0.2500000  0.5638700 -0.5386000    0.00000       Uiso       1.00
      H174          H  0.2353900  0.6547000  0.0806300    0.00000       Uiso       1.00
      H175          H  0.1603700  0.6121700  0.0326200    0.00000       Uiso       1.00
      H176          H  0.4117500  0.7126900 -0.0176400    0.00000       Uiso       1.00
      H177          H  0.6997500  2.2377801  0.1494500    0.00000       Uiso       1.00
      H178          H  0.7225500  2.2656600  0.5696400    0.00000       Uiso       1.00
      H179          H  0.7660701  2.2604001 -0.1298000    0.00000       Uiso       1.00
      H180          H  0.8195900  2.2187901  0.2751500    0.00000       Uiso       1.00
      H181          H  0.8051201  2.2253599  0.7239000    0.00000       Uiso       1.00
      H182          H  0.8601499  2.2894101  0.2038200    0.00000       Uiso       1.00
      H183          H  0.8507600  2.2975299  0.6562500    0.00000       Uiso       1.00
      H184          H  0.8220400  2.3233600  0.0629400    0.00000       Uiso       1.00
      H185          H  0.8019000  2.3161299  0.5108500    0.00000       Uiso       1.00
      H186          H  0.6461501  2.0561900  0.3886200    0.00000       Uiso       1.00
      H187          H  0.6504700  2.0870199  0.0138800    0.00000       Uiso       1.00
      H188          H  0.6510900  2.1063600  0.4412500    0.00000       Uiso       1.00
      H189          H  0.7407100  2.0684199  0.0122300    0.00000       Uiso       1.00
      H190          H  0.7125499  2.0446200  0.4053400    0.00000       Uiso       1.00
      H191          H  0.7651200  2.0878799  0.4209600    0.00000       Uiso       1.00
      H192          H  0.7058500  2.1322899  0.7676200    0.00000       Uiso       1.00
      H193          H  0.7515700  2.1249700  0.7685300    0.00000       Uiso       1.00
      H194          H  0.6963500  2.0783501  0.7821300    0.00000       Uiso       1.00
      H195          H  1.3076900  1.7623100 -0.3408400    0.00000       Uiso       1.00
      H196          H  1.2820200  1.7300299  0.0346000    0.00000       Uiso       1.00
      H197          H  1.2419900  1.7394201 -0.6768801    0.00000       Uiso       1.00
      H198          H  1.1844100  1.6764300 -0.4774200    0.00000       Uiso       1.00
      H199          H  1.2027500  1.6865799 -0.0242000    0.00000       Uiso       1.00
      H200          H  1.1517200  1.7040200  0.0389300    0.00000       Uiso       1.00
      H201          H  1.1531600  1.7191800 -0.4160800    0.00000       Uiso       1.00
      H202          H  1.2047200  1.7725500  0.1898100    0.00000       Uiso       1.00
      H203          H  1.1933500  1.7869300 -0.2477300    0.00000       Uiso       1.00
      H204          H  1.2281600  1.8379200 -0.7791900    0.00000       Uiso       1.00
      H205          H  1.2337000  1.8888100 -0.7869200    0.00000       Uiso       1.00
      H206          H  1.2185400  1.8591000 -0.4006700    0.00000       Uiso       1.00
      H207          H  1.3326200  1.8796700 -0.8465900    0.00000       Uiso       1.00
      H208          H  1.3497000  1.8997999 -0.4133500    0.00000       Uiso       1.00
      H209          H  1.3475800  1.9318700 -0.7303300    0.00000       Uiso       1.00
      H210          H  1.2978100  1.9480900 -0.5534100    0.00000       Uiso       1.00
      H211          H  1.3209100  1.9464400 -0.1488100    0.00000       Uiso       1.00
      H212          H  1.2662200  1.9292700 -0.1834200    0.00000       Uiso       1.00
