data_DNiPc-ANDI-COF
_audit_creation_date              0000-00-00
_audit_creation_method            'LanYouShi'
_symmetry_space_group_name_H-M    'P1'
_cell_length_a                    35.9164009
_cell_length_b                    35.8973007
_cell_length_c                    3.5999999
_cell_angle_alpha                 90.0000000
_cell_angle_beta                  90.0000000
_cell_angle_gamma                 90.3219986
loop_
_atom_site_label
_atom_site_type_symbol
_atom_site_fract_x
_atom_site_fract_y
_atom_site_fract_z
_atom_site_U_iso_or_equiv
_atom_site_adp_type
_atom_site_occupancy
        C1          C  0.4819770  0.6819820  1.3888890    0.00000       Uiso       1.00
        C2          C  0.5410750  0.6497340  1.3888890    0.00000       Uiso       1.00
        C3          C  0.5205100  0.6168410  1.3888890    0.00000       Uiso       1.00
        C4          C  0.5332920  0.5789880  1.3888890    0.00000       Uiso       1.00
        O5          O  0.5317870  0.7163310  1.3888890    0.00000       Uiso       1.00
        H6          H  0.5706170  0.6499360  1.3888890    0.00000       Uiso       1.00
        C7          C  0.3176080  0.4813180  1.3888890    0.00000       Uiso       1.00
        C8          C  0.3505320  0.5405160  1.3888890    0.00000       Uiso       1.00
        C9          C  0.3832080  0.5199860  1.3888890    0.00000       Uiso       1.00
       C10          C  0.4215310  0.5330150  1.3888890    0.00000       Uiso       1.00
       O11          O  0.2838930  0.5312120  1.3888890    0.00000       Uiso       1.00
       H12          H  0.3506080  0.5700460  1.3888890    0.00000       Uiso       1.00
       N13          N  0.5674400  0.5694040  1.3888890    0.00000       Uiso       1.00
       C14          C  0.5180240  0.3180120  1.3888890    0.00000       Uiso       1.00
       C15          C  0.4589270  0.3502600  1.3888890    0.00000       Uiso       1.00
       C16          C  0.4794920  0.3831530  1.3888890    0.00000       Uiso       1.00
       C17          C  0.4667100  0.4210340  1.3888890    0.00000       Uiso       1.00
       O18          O  0.4682140  0.2836630  1.3888890    0.00000       Uiso       1.00
       H19          H  0.4293850  0.3500580  1.3888890    0.00000       Uiso       1.00
       C20          C  0.6823940  0.5186760  1.3888890    0.00000       Uiso       1.00
       C21          C  0.6494700  0.4594780  1.3888890    0.00000       Uiso       1.00
       C22          C  0.6167940  0.4800360  1.3888890    0.00000       Uiso       1.00
       C23          C  0.5784710  0.4669790  1.3888890    0.00000       Uiso       1.00
       O24          O  0.7161090  0.4688100  1.3888890    0.00000       Uiso       1.00
       H25          H  0.6493940  0.4299480  1.3888890    0.00000       Uiso       1.00
       N26          N  0.4325610  0.4305910  1.3888890    0.00000       Uiso       1.00
       C27          C  0.5203470  0.6823070  1.3888890    0.00000       Uiso       1.00
       C28          C  0.4614120  0.6490600  1.3888890    0.00000       Uiso       1.00
       C29          C  0.4821680  0.6165150  1.3888890    0.00000       Uiso       1.00
       C30          C  0.4696120  0.5784260  1.3888890    0.00000       Uiso       1.00
       O31          O  0.4703350  0.7157930  1.3888890    0.00000       Uiso       1.00
       H32          H  0.4318690  0.6487750  1.3888890    0.00000       Uiso       1.00
       C33          C  0.6822530  0.4802610  1.3888890    0.00000       Uiso       1.00
       C34          C  0.6497460  0.5393180  1.3888890    0.00000       Uiso       1.00
       C35          C  0.6169360  0.5186190  1.3888890    0.00000       Uiso       1.00
       C36          C  0.5787190  0.5314980  1.3888890    0.00000       Uiso       1.00
       O37          O  0.7163350  0.5302920  1.3888890    0.00000       Uiso       1.00
       H38          H  0.6498500  0.5688480  1.3888890    0.00000       Uiso       1.00
       N39          N  0.4318040  0.5672070  1.3888890    0.00000       Uiso       1.00
       C40          C  0.4796550  0.3176870  1.3888890    0.00000       Uiso       1.00
       C41          C  0.5385890  0.3509340  1.3888890    0.00000       Uiso       1.00
       C42          C  0.5178340  0.3834790  1.3888890    0.00000       Uiso       1.00
       C43          C  0.5303900  0.4215680  1.3888890    0.00000       Uiso       1.00
       O44          O  0.5296670  0.2842010  1.3888890    0.00000       Uiso       1.00
       H45          H  0.5681320  0.3512190  1.3888890    0.00000       Uiso       1.00
       C46          C  0.3177490  0.5197340  1.3888890    0.00000       Uiso       1.00
       C47          C  0.3502560  0.4606760  1.3888890    0.00000       Uiso       1.00
       C48          C  0.3830660  0.4813750  1.3888890    0.00000       Uiso       1.00
       C49          C  0.4212830  0.4684960  1.3888890    0.00000       Uiso       1.00
       O50          O  0.2836670  0.4697300  1.3888890    0.00000       Uiso       1.00
       H51          H  0.3501240  0.4311470  1.3888890    0.00000       Uiso       1.00
       N52          N  0.5681980  0.4327870  1.3888890    0.00000       Uiso       1.00
       B53          B  0.5009810  0.7375270  1.3888890    0.00000       Uiso       1.00
       N54          N  0.5015570  0.5529660  1.3888890    0.00000       Uiso       1.00
       B55          B  0.4990210  0.2624680  1.3888890    0.00000       Uiso       1.00
       N56          N  0.4984450  0.4470280  1.3888890    0.00000       Uiso       1.00
       B57          B  0.2623410  0.5004090  1.3888890    0.00000       Uiso       1.00
       N58          N  0.4443770  0.5008010  1.3888890    0.00000       Uiso       1.00
       B59          B  0.7376610  0.4995850  1.3888890    0.00000       Uiso       1.00
       N60          N  0.5556240  0.4992210  1.3888890    0.00000       Uiso       1.00
       C61          C  0.0197600  0.5000280  1.3888890    0.00000       Uiso       1.00
       C62          C  0.0200300  0.5665640  1.3888890    0.00000       Uiso       1.00
       C63          C  0.0194910  0.4334920  1.3888890    0.00000       Uiso       1.00
       C64          C  0.0395960  0.5333250  1.3888890    0.00000       Uiso       1.00
       C65          C  0.0788480  0.5333860  1.3888890    0.00000       Uiso       1.00
       C66          C  0.0393270  0.4667930  1.3888890    0.00000       Uiso       1.00
       C67          C  0.0785780  0.4668550  1.3888890    0.00000       Uiso       1.00
       C68          C  0.1400420  0.5002170  1.3888890    0.00000       Uiso       1.00
       C69          C  0.1612230  0.5335160  1.3888890    0.00000       Uiso       1.00
       C70          C  0.2002640  0.5335770  1.3888890    0.00000       Uiso       1.00
       C71          C  0.1609540  0.4669850  1.3888890    0.00000       Uiso       1.00
       C72          C  0.1999950  0.4670460  1.3888890    0.00000       Uiso       1.00
       C73          C  0.2203350  0.5003430  1.3888890    0.00000       Uiso       1.00
       O74          O  0.0955120  0.5640820  1.3888890    0.00000       Uiso       1.00
       O75          O  0.0949950  0.4362110  1.3888890    0.00000       Uiso       1.00
       N76          N  0.0986870  0.5001520  1.3888890    0.00000       Uiso       1.00
       H77          H  0.0352680  0.5928120  1.3888890    0.00000       Uiso       1.00
       H78          H  0.1472790  0.5603130  1.3888890    0.00000       Uiso       1.00
       H79          H  0.2155030  0.5598250  1.3888890    0.00000       Uiso       1.00
       H80          H  0.0345170  0.4072910  1.3888890    0.00000       Uiso       1.00
       H81          H  0.1467930  0.4401430  1.3888890    0.00000       Uiso       1.00
       H82          H  0.2150210  0.4408450  1.3888890    0.00000       Uiso       1.00
       C83          C  0.9802421  0.4999660  1.3888890    0.00000       Uiso       1.00
       C84          C  0.9799720  0.4334300  1.3888890    0.00000       Uiso       1.00
       C85          C  0.9805111  0.5665020  1.3888890    0.00000       Uiso       1.00
       C86          C  0.9604060  0.4666690  1.3888890    0.00000       Uiso       1.00
       C87          C  0.9211540  0.4666080  1.3888890    0.00000       Uiso       1.00
       C88          C  0.9606749  0.5332010  1.3888890    0.00000       Uiso       1.00
       C89          C  0.9214231  0.5331390  1.3888890    0.00000       Uiso       1.00
       C90          C  0.8599590  0.4997770  1.3888890    0.00000       Uiso       1.00
       C91          C  0.8387780  0.4664780  1.3888890    0.00000       Uiso       1.00
       C92          C  0.7997380  0.4664170  1.3888890    0.00000       Uiso       1.00
       C93          C  0.8390480  0.5330090  1.3888890    0.00000       Uiso       1.00
       C94          C  0.8000070  0.5329480  1.3888890    0.00000       Uiso       1.00
       C95          C  0.7796670  0.4996510  1.3888890    0.00000       Uiso       1.00
       O96          O  0.9044899  0.4359120  1.3888890    0.00000       Uiso       1.00
       O97          O  0.9050070  0.5637830  1.3888890    0.00000       Uiso       1.00
       N98          N  0.9013150  0.4998420  1.3888890    0.00000       Uiso       1.00
       H99          H  0.9647341  0.4071820  1.3888890    0.00000       Uiso       1.00
      H100          H  0.8527220  0.4396810  1.3888890    0.00000       Uiso       1.00
      H101          H  0.7844990  0.4401690  1.3888890    0.00000       Uiso       1.00
      H102          H  0.9654840  0.5927030  1.3888890    0.00000       Uiso       1.00
      H103          H  0.8532090  0.5598510  1.3888890    0.00000       Uiso       1.00
      H104          H  0.7849810  0.5591490  1.3888890    0.00000       Uiso       1.00
      C105          C  0.4999270  0.0197670  1.3888890    0.00000       Uiso       1.00
      C106          C  0.4334260  0.0191440  1.3888890    0.00000       Uiso       1.00
      C107          C  0.5664270  0.0203890  1.3888890    0.00000       Uiso       1.00
      C108          C  0.4666050  0.0391670  1.3888890    0.00000       Uiso       1.00
      C109          C  0.4664590  0.0784380  1.3888890    0.00000       Uiso       1.00
      C110          C  0.5331010  0.0397890  1.3888890    0.00000       Uiso       1.00
      C111          C  0.5329540  0.0790600  1.3888890    0.00000       Uiso       1.00
      C112          C  0.4994770  0.1401090  1.3888890    0.00000       Uiso       1.00
      C113          C  0.4661510  0.1608540  1.3888890    0.00000       Uiso       1.00
      C114          C  0.4660050  0.1999140  1.3888890    0.00000       Uiso       1.00
      C115          C  0.5326470  0.1614770  1.3888890    0.00000       Uiso       1.00
      C116          C  0.5325010  0.2005370  1.3888890    0.00000       Uiso       1.00
      C117          C  0.4991780  0.2204410  1.3888890    0.00000       Uiso       1.00
      O118          O  0.4357440  0.0946990  1.3888890    0.00000       Uiso       1.00
      O119          O  0.5635460  0.0958960  1.3888890    0.00000       Uiso       1.00
      N120          N  0.4996320  0.0987320  1.3888890    0.00000       Uiso       1.00
      H121          H  0.4071600  0.0340390  1.3888890    0.00000       Uiso       1.00
      H122          H  0.4393990  0.1465440  1.3888890    0.00000       Uiso       1.00
      H123          H  0.4397390  0.2148090  1.3888890    0.00000       Uiso       1.00
      H124          H  0.5925810  0.0357750  1.3888890    0.00000       Uiso       1.00
      H125          H  0.5595040  0.1476680  1.3888890    0.00000       Uiso       1.00
      H126          H  0.5586540  0.2159220  1.3888890    0.00000       Uiso       1.00
      C127          C  0.5000750  0.9802270  1.3888890    0.00000       Uiso       1.00
      C128          C  0.5665750  0.9808500  1.3888890    0.00000       Uiso       1.00
      C129          C  0.4335750  0.9796050  1.3888890    0.00000       Uiso       1.00
      C130          C  0.5333960  0.9608270  1.3888890    0.00000       Uiso       1.00
      C131          C  0.5335430  0.9215559  1.3888890    0.00000       Uiso       1.00
      C132          C  0.4669010  0.9602050  1.3888890    0.00000       Uiso       1.00
      C133          C  0.4670480  0.9209341  1.3888890    0.00000       Uiso       1.00
      C134          C  0.5005240  0.8598850  1.3888890    0.00000       Uiso       1.00
      C135          C  0.5338510  0.8391400  1.3888890    0.00000       Uiso       1.00
      C136          C  0.5339960  0.8000800  1.3888890    0.00000       Uiso       1.00
      C137          C  0.4673550  0.8385170  1.3888890    0.00000       Uiso       1.00
      C138          C  0.4675010  0.7994570  1.3888890    0.00000       Uiso       1.00
      C139          C  0.5008240  0.7795530  1.3888890    0.00000       Uiso       1.00
      O140          O  0.5642580  0.9052950  1.3888890    0.00000       Uiso       1.00
      O141          O  0.4364560  0.9040990  1.3888890    0.00000       Uiso       1.00
      N142          N  0.5003700  0.9012619  1.3888890    0.00000       Uiso       1.00
      H143          H  0.5928420  0.9659550  1.3888890    0.00000       Uiso       1.00
      H144          H  0.5606030  0.8534500  1.3888890    0.00000       Uiso       1.00
      H145          H  0.5602630  0.7851850  1.3888890    0.00000       Uiso       1.00
      H146          H  0.4074210  0.9642199  1.3888890    0.00000       Uiso       1.00
      H147          H  0.4404980  0.8523260  1.3888890    0.00000       Uiso       1.00
      H148          H  0.4413470  0.7840720  1.3888890    0.00000       Uiso       1.00
     Ni149         Ni  0.5000000  0.5000000  0.3900000    0.00000       Uiso       1.00
