data_DTP-APyrDI-COF
_audit_creation_date              0000-00-00
_audit_creation_method            'LanYouShi'
_symmetry_space_group_name_H-M    'P1'
_cell_length_a                    51.7697983
_cell_length_b                    51.7697983
_cell_length_c                    3.5397000
_cell_angle_alpha                 90.0000000
_cell_angle_beta                  90.0000000
_cell_angle_gamma                 120.0000000
loop_
_atom_site_label
_atom_site_type_symbol
_atom_site_fract_x
_atom_site_fract_y
_atom_site_fract_z
_atom_site_U_iso_or_equiv
_atom_site_adp_type
_atom_site_occupancy
        C1          C  0.6943580  0.3332640  0.5000030    0.00000       Uiso       1.00
        C2          C  0.6943580  0.3610940  0.5000030    0.00000       Uiso       1.00
        C3          C  0.7224660  0.3882590  0.5000030    0.00000       Uiso       1.00
        C4          C  0.7224660  0.3342060  0.5000030    0.00000       Uiso       1.00
        C5          C  0.7492110  0.3879610  0.5000030    0.00000       Uiso       1.00
        C6          C  0.7492110  0.3612510  0.5000030    0.00000       Uiso       1.00
        C7          C  0.6667350  0.3610940  0.5000030    0.00000       Uiso       1.00
        C8          C  0.6389050  0.3332640  0.5000030    0.00000       Uiso       1.00
        C9          C  0.6117400  0.3342060  0.5000030    0.00000       Uiso       1.00
       C10          C  0.6657930  0.3882590  0.5000030    0.00000       Uiso       1.00
       C11          C  0.6120380  0.3612510  0.5000030    0.00000       Uiso       1.00
       C12          C  0.6387490  0.3879610  0.5000030    0.00000       Uiso       1.00
       C13          C  0.6389050  0.3056410  0.5000030    0.00000       Uiso       1.00
       C14          C  0.6667350  0.3056410  0.5000030    0.00000       Uiso       1.00
       C15          C  0.6657930  0.2775340  0.5000030    0.00000       Uiso       1.00
       C16          C  0.6117400  0.2775340  0.5000030    0.00000       Uiso       1.00
       C17          C  0.6387490  0.2507880  0.5000030    0.00000       Uiso       1.00
       C18          C  0.6120380  0.2507880  0.5000030    0.00000       Uiso       1.00
       C19          C  0.3056410  0.6667350  0.5000030    0.00000       Uiso       1.00
       C20          C  0.3056410  0.6389050  0.5000030    0.00000       Uiso       1.00
       C21          C  0.2775340  0.6117400  0.5000030    0.00000       Uiso       1.00
       C22          C  0.2775340  0.6657930  0.5000030    0.00000       Uiso       1.00
       C23          C  0.2507880  0.6120380  0.5000030    0.00000       Uiso       1.00
       C24          C  0.2507880  0.6387490  0.5000030    0.00000       Uiso       1.00
       C25          C  0.3332640  0.6389050  0.5000030    0.00000       Uiso       1.00
       C26          C  0.3610940  0.6667350  0.5000030    0.00000       Uiso       1.00
       C27          C  0.3882590  0.6657930  0.5000030    0.00000       Uiso       1.00
       C28          C  0.3342060  0.6117400  0.5000030    0.00000       Uiso       1.00
       C29          C  0.3879610  0.6387490  0.5000030    0.00000       Uiso       1.00
       C30          C  0.3612510  0.6120380  0.5000030    0.00000       Uiso       1.00
       C31          C  0.3610940  0.6943580  0.5000030    0.00000       Uiso       1.00
       C32          C  0.3332640  0.6943580  0.5000030    0.00000       Uiso       1.00
       C33          C  0.3342060  0.7224659  0.5000030    0.00000       Uiso       1.00
       C34          C  0.3882590  0.7224659  0.5000030    0.00000       Uiso       1.00
       C35          C  0.3612510  0.7492110  0.5000030    0.00000       Uiso       1.00
       C36          C  0.3879610  0.7492110  0.5000030    0.00000       Uiso       1.00
       O37          O  0.7772170  0.3658320  0.5000030    0.00000       Uiso       1.00
       O38          O  0.6341670  0.4113850  0.5000030    0.00000       Uiso       1.00
       O39          O  0.5886140  0.2227820  0.5000030    0.00000       Uiso       1.00
       O40          O  0.2227820  0.6341670  0.5000030    0.00000       Uiso       1.00
       O41          O  0.3658320  0.5886140  0.5000030    0.00000       Uiso       1.00
       O42          O  0.4113850  0.7772170  0.5000030    0.00000       Uiso       1.00
       O43          O  0.3658320  0.7772170  0.5000030    0.00000       Uiso       1.00
       O44          O  0.4113850  0.6341670  0.5000030    0.00000       Uiso       1.00
       O45          O  0.2227820  0.5886140  0.5000030    0.00000       Uiso       1.00
       O46          O  0.6341670  0.2227820  0.5000030    0.00000       Uiso       1.00
       O47          O  0.5886140  0.3658320  0.5000030    0.00000       Uiso       1.00
       O48          O  0.7772170  0.4113850  0.5000030    0.00000       Uiso       1.00
       B49          B  0.7957260  0.3978630  0.5000030    0.00000       Uiso       1.00
       B50          B  0.6021360  0.3978630  0.5000030    0.00000       Uiso       1.00
       B51          B  0.6021360  0.2042730  0.5000030    0.00000       Uiso       1.00
       B52          B  0.2042730  0.6021360  0.5000030    0.00000       Uiso       1.00
       B53          B  0.3978630  0.6021360  0.5000030    0.00000       Uiso       1.00
       B54          B  0.3978630  0.7957260  0.5000030    0.00000       Uiso       1.00
       H55          H  0.7248680  0.4089390  0.5000030    0.00000       Uiso       1.00
       H56          H  0.5910600  0.3159290  0.5000030    0.00000       Uiso       1.00
       H57          H  0.6840710  0.2751320  0.5000030    0.00000       Uiso       1.00
       H58          H  0.5910600  0.2751320  0.5000030    0.00000       Uiso       1.00
       H59          H  0.6840710  0.4089390  0.5000030    0.00000       Uiso       1.00
       H60          H  0.7248680  0.3159290  0.5000030    0.00000       Uiso       1.00
       H61          H  0.2751320  0.5910600  0.5000030    0.00000       Uiso       1.00
       H62          H  0.4089390  0.6840710  0.5000030    0.00000       Uiso       1.00
       H63          H  0.3159290  0.7248680  0.5000030    0.00000       Uiso       1.00
       H64          H  0.4089390  0.7248680  0.5000030    0.00000       Uiso       1.00
       H65          H  0.3159290  0.5910600  0.5000030    0.00000       Uiso       1.00
       H66          H  0.2751320  0.6840710  0.5000030    0.00000       Uiso       1.00
       C67          C  0.0267820  0.5267660  0.5000030    0.00000       Uiso       1.00
       C68          C  0.4732330  0.5000150  0.5000030    0.00000       Uiso       1.00
       C69          C  0.4999840  0.9732170  0.5000030    0.00000       Uiso       1.00
       C70          C  0.9732170  0.4732330  0.5000030    0.00000       Uiso       1.00
       C71          C  0.5267660  0.4999840  0.5000030    0.00000       Uiso       1.00
       C72          C  0.5000150  0.0267820  0.5000030    0.00000       Uiso       1.00
       C73          C  0.5267660  0.0267820  0.5000030    0.00000       Uiso       1.00
       C74          C  0.5000150  0.4732330  0.5000030    0.00000       Uiso       1.00
       C75          C  0.9732170  0.4999840  0.5000030    0.00000       Uiso       1.00
       C76          C  0.4732330  0.9732170  0.5000030    0.00000       Uiso       1.00
       C77          C  0.4999840  0.5267660  0.5000030    0.00000       Uiso       1.00
       C78          C  0.0267820  0.5000150  0.5000030    0.00000       Uiso       1.00
       C79          C  0.0565630  0.5490310  0.5000030    0.00000       Uiso       1.00
       C80          C  0.4509680  0.5075310  0.5000030    0.00000       Uiso       1.00
       C81          C  0.4924680  0.9434360  0.5000030    0.00000       Uiso       1.00
       C82          C  0.9434360  0.4509680  0.5000030    0.00000       Uiso       1.00
       C83          C  0.5490310  0.4924680  0.5000030    0.00000       Uiso       1.00
       C84          C  0.5075310  0.0565630  0.5000030    0.00000       Uiso       1.00
       C85          C  0.5490310  0.0565630  0.5000030    0.00000       Uiso       1.00
       C86          C  0.5075310  0.4509680  0.5000030    0.00000       Uiso       1.00
       C87          C  0.9434360  0.4924680  0.5000030    0.00000       Uiso       1.00
       C88          C  0.4509680  0.9434360  0.5000030    0.00000       Uiso       1.00
       C89          C  0.4924680  0.5490310  0.5000030    0.00000       Uiso       1.00
       C90          C  0.0565630  0.5075310  0.5000030    0.00000       Uiso       1.00
       C91          C  0.1062510  0.5531250  0.5000030    0.00000       Uiso       1.00
       C92          C  0.4468740  0.5531250  0.5000030    0.00000       Uiso       1.00
       C93          C  0.4468740  0.8937491  0.5000030    0.00000       Uiso       1.00
       C94          C  0.8937490  0.4468740  0.5000030    0.00000       Uiso       1.00
       C95          C  0.5531250  0.4468740  0.5000030    0.00000       Uiso       1.00
       C96          C  0.5531250  0.1062510  0.5000030    0.00000       Uiso       1.00
       C97          C  0.1234780  0.5848720  0.5000030    0.00000       Uiso       1.00
       C98          C  0.4151270  0.5386050  0.5000030    0.00000       Uiso       1.00
       C99          C  0.4613940  0.8765221  0.5000030    0.00000       Uiso       1.00
      C100          C  0.8765220  0.4151270  0.5000030    0.00000       Uiso       1.00
      C101          C  0.5848720  0.4613940  0.5000030    0.00000       Uiso       1.00
      C102          C  0.5386050  0.1234780  0.5000030    0.00000       Uiso       1.00
      C103          C  0.5848720  0.1234780  0.5000030    0.00000       Uiso       1.00
      C104          C  0.5386050  0.4151270  0.5000030    0.00000       Uiso       1.00
      C105          C  0.8765220  0.4613940  0.5000030    0.00000       Uiso       1.00
      C106          C  0.4151270  0.8765221  0.5000030    0.00000       Uiso       1.00
      C107          C  0.4613940  0.5848720  0.5000030    0.00000       Uiso       1.00
      C108          C  0.1234780  0.5386050  0.5000030    0.00000       Uiso       1.00
      C109          C  0.1549040  0.6007780  0.5000030    0.00000       Uiso       1.00
      C110          C  0.3992220  0.5541260  0.5000030    0.00000       Uiso       1.00
      C111          C  0.4458740  0.8450960  0.5000030    0.00000       Uiso       1.00
      C112          C  0.8450960  0.3992220  0.5000030    0.00000       Uiso       1.00
      C113          C  0.6007780  0.4458740  0.5000030    0.00000       Uiso       1.00
      C114          C  0.5541260  0.1549040  0.5000030    0.00000       Uiso       1.00
      C115          C  0.6007780  0.1549040  0.5000030    0.00000       Uiso       1.00
      C116          C  0.5541260  0.3992220  0.5000030    0.00000       Uiso       1.00
      C117          C  0.8450960  0.4458740  0.5000030    0.00000       Uiso       1.00
      C118          C  0.3992220  0.8450960  0.5000030    0.00000       Uiso       1.00
      C119          C  0.4458740  0.6007780  0.5000030    0.00000       Uiso       1.00
      C120          C  0.1549040  0.5541260  0.5000030    0.00000       Uiso       1.00
      H121          H  0.1135640  0.5975450  0.5000030    0.00000       Uiso       1.00
      H122          H  0.4024540  0.5160180  0.5000030    0.00000       Uiso       1.00
      H123          H  0.4839810  0.8864350  0.5000030    0.00000       Uiso       1.00
      H124          H  0.8864350  0.4024540  0.5000030    0.00000       Uiso       1.00
      H125          H  0.5975450  0.4839810  0.5000030    0.00000       Uiso       1.00
      H126          H  0.5160180  0.1135640  0.5000030    0.00000       Uiso       1.00
      H127          H  0.5975450  0.1135640  0.5000030    0.00000       Uiso       1.00
      H128          H  0.5160180  0.4024540  0.5000030    0.00000       Uiso       1.00
      H129          H  0.8864350  0.4839810  0.5000030    0.00000       Uiso       1.00
      H130          H  0.4024540  0.8864350  0.5000030    0.00000       Uiso       1.00
      H131          H  0.4839810  0.5975450  0.5000030    0.00000       Uiso       1.00
      H132          H  0.1135640  0.5160180  0.5000030    0.00000       Uiso       1.00
      H133          H  0.1660110  0.6236840  0.5000030    0.00000       Uiso       1.00
      H134          H  0.3763150  0.5423260  0.5000030    0.00000       Uiso       1.00
      H135          H  0.4576730  0.8339890  0.5000030    0.00000       Uiso       1.00
      H136          H  0.8339890  0.3763150  0.5000030    0.00000       Uiso       1.00
      H137          H  0.6236840  0.4576730  0.5000030    0.00000       Uiso       1.00
      H138          H  0.5423260  0.1660110  0.5000030    0.00000       Uiso       1.00
      H139          H  0.6236840  0.1660110  0.5000030    0.00000       Uiso       1.00
      H140          H  0.5423260  0.3763150  0.5000030    0.00000       Uiso       1.00
      H141          H  0.8339890  0.4576730  0.5000030    0.00000       Uiso       1.00
      H142          H  0.3763150  0.8339890  0.5000030    0.00000       Uiso       1.00
      H143          H  0.4576730  0.6236840  0.5000030    0.00000       Uiso       1.00
      H144          H  0.1660110  0.5423260  0.5000030    0.00000       Uiso       1.00
      C145          C  0.8289719  0.4144860  0.5000030    0.00000       Uiso       1.00
      C146          C  0.5855130  0.4144860  0.5000030    0.00000       Uiso       1.00
      C147          C  0.5855130  0.1710270  0.5000030    0.00000       Uiso       1.00
      C148          C  0.1710270  0.5855130  0.5000030    0.00000       Uiso       1.00
      C149          C  0.4144860  0.5855130  0.5000030    0.00000       Uiso       1.00
      C150          C  0.4144860  0.8289720  0.5000030    0.00000       Uiso       1.00
      C151          C  0.5277430  0.5277430  0.5000030    0.00000       Uiso       1.00
      H152          H  0.5475610  0.5475610  0.5000030    0.00000       Uiso       1.00
      C153          C  0.4722560  0.0000000  0.5000030    0.00000       Uiso       1.00
      H154          H  0.4524380  0.0000000  0.5000030    0.00000       Uiso       1.00
      C155          C -0.0000000  0.4722560  0.5000030    0.00000       Uiso       1.00
      H156          H -0.0000000  0.4524380  0.5000030    0.00000       Uiso       1.00
      C157          C  0.4722560  0.4722560  0.5000030    0.00000       Uiso       1.00
      H158          H  0.4524380  0.4524380  0.5000030    0.00000       Uiso       1.00
      C159          C  0.5277430  0.0000000  0.5000030    0.00000       Uiso       1.00
      H160          H  0.5475610  0.0000000  0.5000030    0.00000       Uiso       1.00
      C161          C  0.0000000  0.5277430  0.5000030    0.00000       Uiso       1.00
      H162          H -0.0000000  0.5475610  0.5000030    0.00000       Uiso       1.00
      O163          O  0.0631060  0.5757170  0.5000030    0.00000       Uiso       1.00
      O164          O  0.0631060  0.4873890  0.5000030    0.00000       Uiso       1.00
      O165          O  0.4242830  0.4873890  0.5000030    0.00000       Uiso       1.00
      O166          O  0.5126100  0.5757170  0.5000030    0.00000       Uiso       1.00
      O167          O  0.5126100  0.9368930  0.5000030    0.00000       Uiso       1.00
      O168          O  0.4242830  0.9368930  0.5000030    0.00000       Uiso       1.00
      O169          O  0.9368930  0.4242830  0.5000030    0.00000       Uiso       1.00
      O170          O  0.9368930  0.5126100  0.5000030    0.00000       Uiso       1.00
      O171          O  0.5757170  0.5126100  0.5000030    0.00000       Uiso       1.00
      O172          O  0.4873890  0.4242830  0.5000030    0.00000       Uiso       1.00
      O173          O  0.4873890  0.0631060  0.5000030    0.00000       Uiso       1.00
      O174          O  0.5757170  0.0631060  0.5000030    0.00000       Uiso       1.00
      N175          N  0.0753490  0.5376740  0.5000030    0.00000       Uiso       1.00
      N176          N  0.4623250  0.5376740  0.5000030    0.00000       Uiso       1.00
      N177          N  0.4623250  0.9246500  0.5000030    0.00000       Uiso       1.00
      N178          N  0.9246500  0.4623250  0.5000030    0.00000       Uiso       1.00
      N179          N  0.5376740  0.4623250  0.5000030    0.00000       Uiso       1.00
      N180          N  0.5376740  0.0753490  0.5000030    0.00000       Uiso       1.00
