data_4PE-3P
_audit_creation_date              0000-00-00
_audit_creation_method            'LanYouShi'
_symmetry_space_group_name_H-M    'P1'
_cell_length_a                    54.8381996
_cell_length_b                    54.8381996
_cell_length_c                    4.8042002
_cell_angle_alpha                 90.0000000
_cell_angle_beta                  90.0000000
_cell_angle_gamma                 120.0000000
loop_
_atom_site_label
_atom_site_type_symbol
_atom_site_fract_x
_atom_site_fract_y
_atom_site_fract_z
_atom_site_U_iso_or_equiv
_atom_site_adp_type
_atom_site_occupancy
        C1          C  0.4872000  0.4879000  0.4998980    0.00000       Uiso       1.00
        C2          C  0.4601210  0.4874890  0.5048960    0.00000       Uiso       1.00
        C3          C  0.4375550  0.4677230  0.3424420    0.00000       Uiso       1.00
        C4          C  0.4119850  0.4668120  0.3394120    0.00000       Uiso       1.00
        C5          C  0.4083610  0.4862650  0.4985430    0.00000       Uiso       1.00
        C6          C  0.4306130  0.5059240  0.6641070    0.00000       Uiso       1.00
        C7          C  0.4556970  0.5061350  0.6692640    0.00000       Uiso       1.00
        C8          C  0.4837190  0.4595810  0.4956070    0.00000       Uiso       1.00
        C9          C  0.4624000  0.4383120  0.6582330    0.00000       Uiso       1.00
       C10          C  0.4580510  0.4113480  0.6595850    0.00000       Uiso       1.00
       C11          C  0.4756260  0.4050060  0.5017540    0.00000       Uiso       1.00
       C12          C  0.4969140  0.4259800  0.3375040    0.00000       Uiso       1.00
       C13          C  0.5006060  0.4526730  0.3328680    0.00000       Uiso       1.00
       C14          C  0.3600170  0.4661880  0.5520990    0.00000       Uiso       1.00
       C15          C  0.3342290  0.4670710  0.5149700    0.00000       Uiso       1.00
       C16          C  0.3101620  0.4482010  0.6632530    0.00000       Uiso       1.00
       C17          C  0.2864780  0.4509900  0.6563080    0.00000       Uiso       1.00
       C18          C  0.2865710  0.4724520  0.4976760    0.00000       Uiso       1.00
       C19          C  0.3104360  0.4905090  0.3396040    0.00000       Uiso       1.00
       C20          C  0.3340140  0.4878220  0.3462640    0.00000       Uiso       1.00
       C21          C  0.2621810  0.4763450  0.4981960    0.00000       Uiso       1.00
       C22          C  0.4919160  0.3743980  0.5780400    0.00000       Uiso       1.00
       C23          C  0.4903120  0.3473780  0.5550260    0.00000       Uiso       1.00
       C24          C  0.5101700  0.3426730  0.6900810    0.00000       Uiso       1.00
       C25          C  0.5087630  0.3169430  0.6657290    0.00000       Uiso       1.00
       C26          C  0.4869860  0.2952050  0.5128820    0.00000       Uiso       1.00
       C27          C  0.4670690  0.3000740  0.3800920    0.00000       Uiso       1.00
       C28          C  0.4688510  0.3258970  0.3961150    0.00000       Uiso       1.00
       C29          C  0.4841710  0.2674810  0.5025020    0.00000       Uiso       1.00
       C30          C  0.5073570  0.2633960  0.5017260    0.00000       Uiso       1.00
       C31          C  0.4572010  0.2436920  0.5004400    0.00000       Uiso       1.00
       C32          C  0.5037730  0.2367260  0.4979370    0.00000       Uiso       1.00
       C33          C  0.2350040  0.4531540  0.5004550    0.00000       Uiso       1.00
       H34          H  0.4731000  0.5213000  0.8134970    0.00000       Uiso       1.00
       H35          H  0.4407000  0.4528000  0.2032990    0.00000       Uiso       1.00
       H36          H  0.3950000  0.4521000  0.1918990    0.00000       Uiso       1.00
       H37          H  0.4275000  0.5206000  0.8055970    0.00000       Uiso       1.00
       H38          H  0.4490000  0.4436000  0.7989980    0.00000       Uiso       1.00
       H39          H  0.4417000  0.3952000  0.8024970    0.00000       Uiso       1.00
       H40          H  0.5099000  0.4208000  0.1945990    0.00000       Uiso       1.00
       H41          H  0.5171000  0.4691000  0.1908990    0.00000       Uiso       1.00
       H42          H  0.3587000  0.4473000  0.6594980    0.00000       Uiso       1.00
       H43          H  0.3112000  0.4323000  0.8086970    0.00000       Uiso       1.00
       H44          H  0.2686000  0.4374000  0.7961970    0.00000       Uiso       1.00
       H45          H  0.3104000  0.5066000  0.1956990    0.00000       Uiso       1.00
       H46          H  0.3535000  0.5018000  0.2154990    0.00000       Uiso       1.00
       H47          H  0.5116000  0.3924000  0.6737980    0.00000       Uiso       1.00
       H48          H  0.5264000  0.3599000  0.8345970    0.00000       Uiso       1.00
       H49          H  0.5238000  0.3135000  0.7899980    0.00000       Uiso       1.00
       H50          H  0.4506000  0.2838000  0.2445990    0.00000       Uiso       1.00
       H51          H  0.4541000  0.3310000  0.2788990    0.00000       Uiso       1.00
       H52          H  0.5281000  0.2822000  0.5019980    0.00000       Uiso       1.00
       H53          H  0.4387000  0.2470000  0.5046980    0.00000       Uiso       1.00
       H54          H  0.2873000  0.5217000  0.4983980    0.00000       Uiso       1.00
       H55          H  0.2332000  0.4324000  0.4996980    0.00000       Uiso       1.00
       N56          N  0.3837770  0.4870520  0.4839860    0.00000       Uiso       1.00
       N57          N  0.4717090  0.3781680  0.5027060    0.00000       Uiso       1.00
       C58          C  0.5121000  0.9992990  0.4998980    0.00000       Uiso       1.00
       C59          C  0.5125100  0.9726320  0.5048960    0.00000       Uiso       1.00
       C60          C  0.5322760  0.9698319  0.3424420    0.00000       Uiso       1.00
       C61          C  0.5331880  0.9451730  0.3394120    0.00000       Uiso       1.00
       C62          C  0.5137340  0.9220950  0.4985430    0.00000       Uiso       1.00
       C63          C  0.4940760  0.9246890  0.6641070    0.00000       Uiso       1.00
       C64          C  0.4938640  0.9495611  0.6692640    0.00000       Uiso       1.00
       C65          C  0.5404190  0.0241380  0.4956070    0.00000       Uiso       1.00
       C66          C  0.5616880  0.0240880  0.6582330    0.00000       Uiso       1.00
       C67          C  0.5886510  0.0467030  0.6595850    0.00000       Uiso       1.00
       C68          C  0.5949930  0.0706200  0.5017540    0.00000       Uiso       1.00
       C69          C  0.5740200  0.0709340  0.3375040    0.00000       Uiso       1.00
       C70          C  0.5473260  0.0479330  0.3328680    0.00000       Uiso       1.00
       C71          C  0.5338110  0.8938280  0.5520990    0.00000       Uiso       1.00
       C72          C  0.5329290  0.8671580  0.5149700    0.00000       Uiso       1.00
       C73          C  0.5517980  0.8619600  0.6632530    0.00000       Uiso       1.00
       C74          C  0.5490090  0.8354869  0.6563080    0.00000       Uiso       1.00
       C75          C  0.5275470  0.8141180  0.4976760    0.00000       Uiso       1.00
       C76          C  0.5094910  0.8199260  0.3396040    0.00000       Uiso       1.00
       C77          C  0.5121780  0.8461920  0.3462640    0.00000       Uiso       1.00
       C78          C  0.5236550  0.7858360  0.4981960    0.00000       Uiso       1.00
       C79          C  0.6256010  0.1175180  0.5780400    0.00000       Uiso       1.00
       C80          C  0.6526210  0.1429340  0.5550260    0.00000       Uiso       1.00
       C81          C  0.6573270  0.1674970  0.6900810    0.00000       Uiso       1.00
       C82          C  0.6830570  0.1918200  0.6657290    0.00000       Uiso       1.00
       C83          C  0.7047950  0.1917810  0.5128820    0.00000       Uiso       1.00
       C84          C  0.6999260  0.1669950  0.3800920    0.00000       Uiso       1.00
       C85          C  0.6741030  0.1429540  0.3961150    0.00000       Uiso       1.00
       C86          C  0.7325180  0.2166900  0.5025020    0.00000       Uiso       1.00
       C87          C  0.7366030  0.2439610  0.5017260    0.00000       Uiso       1.00
       C88          C  0.7563080  0.2135090  0.5004400    0.00000       Uiso       1.00
       C89          C  0.7632740  0.2670470  0.4979370    0.00000       Uiso       1.00
       C90          C  0.5468460  0.7818499  0.5004550    0.00000       Uiso       1.00
       H91          H  0.4787000  0.9518000  0.8134970    0.00000       Uiso       1.00
       H92          H  0.5472000  0.9878991  0.2032990    0.00000       Uiso       1.00
       H93          H  0.5479000  0.9429000  0.1918990    0.00000       Uiso       1.00
       H94          H  0.4794000  0.9069000  0.8055970    0.00000       Uiso       1.00
       H95          H  0.5564000  0.0054000  0.7989980    0.00000       Uiso       1.00
       H96          H  0.6048000  0.0465000  0.8024970    0.00000       Uiso       1.00
       H97          H  0.5792000  0.0891000  0.1945990    0.00000       Uiso       1.00
       H98          H  0.5309000  0.0480000  0.1908990    0.00000       Uiso       1.00
       H99          H  0.5527000  0.9113990  0.6594980    0.00000       Uiso       1.00
      H100          H  0.5677000  0.8789001  0.8086970    0.00000       Uiso       1.00
      H101          H  0.5626000  0.8312000  0.7961970    0.00000       Uiso       1.00
      H102          H  0.4934000  0.8038000  0.1956990    0.00000       Uiso       1.00
      H103          H  0.4982000  0.8517000  0.2154990    0.00000       Uiso       1.00
      H104          H  0.6076000  0.1192000  0.6737980    0.00000       Uiso       1.00
      H105          H  0.6401000  0.1665000  0.8345970    0.00000       Uiso       1.00
      H106          H  0.6865000  0.2103000  0.7899980    0.00000       Uiso       1.00
      H107          H  0.7162000  0.1668000  0.2445990    0.00000       Uiso       1.00
      H108          H  0.6690000  0.1231000  0.2788990    0.00000       Uiso       1.00
      H109          H  0.7178000  0.2459000  0.5019980    0.00000       Uiso       1.00
      H110          H  0.7530000  0.1917000  0.5046980    0.00000       Uiso       1.00
      H111          H  0.4783000  0.7656000  0.4983980    0.00000       Uiso       1.00
      H112          H  0.5676000  0.8008000  0.4996980    0.00000       Uiso       1.00
      N113          N  0.5129470  0.8967250  0.4839860    0.00000       Uiso       1.00
      N114          N  0.6218320  0.0935410  0.5027060    0.00000       Uiso       1.00
      C115          C  0.0007000  0.5128000  0.4998980    0.00000       Uiso       1.00
      C116          C  0.0273680  0.5398780  0.5048960    0.00000       Uiso       1.00
      C117          C  0.0301680  0.5624440  0.3424420    0.00000       Uiso       1.00
      C118          C  0.0548270  0.5880140  0.3394120    0.00000       Uiso       1.00
      C119          C  0.0779040  0.5916380  0.4985430    0.00000       Uiso       1.00
      C120          C  0.0753110  0.5693860  0.6641070    0.00000       Uiso       1.00
      C121          C  0.0504380  0.5443030  0.6692640    0.00000       Uiso       1.00
      C122          C  0.9758610  0.5162800  0.4956070    0.00000       Uiso       1.00
      C123          C  0.9759110  0.5376000  0.6582330    0.00000       Uiso       1.00
      C124          C  0.9532970  0.5419480  0.6595850    0.00000       Uiso       1.00
      C125          C  0.9293790  0.5243730  0.5017540    0.00000       Uiso       1.00
      C126          C  0.9290650  0.5030850  0.3375040    0.00000       Uiso       1.00
      C127          C  0.9520670  0.4993940  0.3328680    0.00000       Uiso       1.00
      C128          C  0.1061710  0.6399820  0.5520990    0.00000       Uiso       1.00
      C129          C  0.1328420  0.6657710  0.5149700    0.00000       Uiso       1.00
      C130          C  0.1380400  0.6898380  0.6632530    0.00000       Uiso       1.00
      C131          C  0.1645120  0.7135210  0.6563080    0.00000       Uiso       1.00
      C132          C  0.1858810  0.7134289  0.4976760    0.00000       Uiso       1.00
      C133          C  0.1800730  0.6895640  0.3396040    0.00000       Uiso       1.00
      C134          C  0.1538080  0.6659850  0.3462640    0.00000       Uiso       1.00
      C135          C  0.2141640  0.7378180  0.4981960    0.00000       Uiso       1.00
      C136          C  0.8824820  0.5080840  0.5780400    0.00000       Uiso       1.00
      C137          C  0.8570660  0.5096870  0.5550260    0.00000       Uiso       1.00
      C138          C  0.8325020  0.4898300  0.6900810    0.00000       Uiso       1.00
      C139          C  0.8081800  0.4912370  0.6657290    0.00000       Uiso       1.00
      C140          C  0.8082190  0.5130140  0.5128820    0.00000       Uiso       1.00
      C141          C  0.8330050  0.5329310  0.3800920    0.00000       Uiso       1.00
      C142          C  0.8570450  0.5311480  0.3961150    0.00000       Uiso       1.00
      C143          C  0.7833090  0.5158280  0.5025020    0.00000       Uiso       1.00
      C144          C  0.7560390  0.4926430  0.5017260    0.00000       Uiso       1.00
      C145          C  0.7864900  0.5427980  0.5004400    0.00000       Uiso       1.00
      C146          C  0.7329520  0.4962270  0.4979370    0.00000       Uiso       1.00
      C147          C  0.2181490  0.7649950  0.5004550    0.00000       Uiso       1.00
      H148          H  0.0482000  0.5269000  0.8134970    0.00000       Uiso       1.00
      H149          H  0.0121000  0.5593000  0.2032990    0.00000       Uiso       1.00
      H150          H  0.0571000  0.6050000  0.1918990    0.00000       Uiso       1.00
      H151          H  0.0931000  0.5725000  0.8055970    0.00000       Uiso       1.00
      H152          H  0.9945990  0.5510000  0.7989980    0.00000       Uiso       1.00
      H153          H  0.9534991  0.5583000  0.8024970    0.00000       Uiso       1.00
      H154          H  0.9109000  0.4901000  0.1945990    0.00000       Uiso       1.00
      H155          H  0.9519990  0.4829000  0.1908990    0.00000       Uiso       1.00
      H156          H  0.0886000  0.6413000  0.6594980    0.00000       Uiso       1.00
      H157          H  0.1211000  0.6887999  0.8086970    0.00000       Uiso       1.00
      H158          H  0.1688000  0.7314000  0.7961970    0.00000       Uiso       1.00
      H159          H  0.1962000  0.6896000  0.1956990    0.00000       Uiso       1.00
      H160          H  0.1483000  0.6465000  0.2154990    0.00000       Uiso       1.00
      H161          H  0.8808000  0.4884000  0.6737980    0.00000       Uiso       1.00
      H162          H  0.8335000  0.4736000  0.8345970    0.00000       Uiso       1.00
      H163          H  0.7897000  0.4762000  0.7899980    0.00000       Uiso       1.00
      H164          H  0.8332000  0.5494000  0.2445990    0.00000       Uiso       1.00
      H165          H  0.8769000  0.5459000  0.2788990    0.00000       Uiso       1.00
      H166          H  0.7541000  0.4719000  0.5019980    0.00000       Uiso       1.00
      H167          H  0.8083000  0.5613000  0.5046980    0.00000       Uiso       1.00
      H168          H  0.2344000  0.7127000  0.4983980    0.00000       Uiso       1.00
      H169          H  0.1992000  0.7668000  0.4996980    0.00000       Uiso       1.00
      N170          N  0.1032750  0.6162220  0.4839860    0.00000       Uiso       1.00
      N171          N  0.9064590  0.5282910  0.5027060    0.00000       Uiso       1.00
      C172          C  0.5128000  0.5121000  0.4998980    0.00000       Uiso       1.00
      C173          C  0.5398780  0.5125100  0.5048960    0.00000       Uiso       1.00
      C174          C  0.5624440  0.5322760  0.3424420    0.00000       Uiso       1.00
      C175          C  0.5880140  0.5331880  0.3394120    0.00000       Uiso       1.00
      C176          C  0.5916380  0.5137340  0.4985430    0.00000       Uiso       1.00
      C177          C  0.5693860  0.4940760  0.6641070    0.00000       Uiso       1.00
      C178          C  0.5443030  0.4938640  0.6692640    0.00000       Uiso       1.00
      C179          C  0.5162800  0.5404190  0.4956070    0.00000       Uiso       1.00
      C180          C  0.5376000  0.5616880  0.6582330    0.00000       Uiso       1.00
      C181          C  0.5419480  0.5886510  0.6595850    0.00000       Uiso       1.00
      C182          C  0.5243730  0.5949930  0.5017540    0.00000       Uiso       1.00
      C183          C  0.5030850  0.5740200  0.3375040    0.00000       Uiso       1.00
      C184          C  0.4993940  0.5473260  0.3328680    0.00000       Uiso       1.00
      C185          C  0.6399820  0.5338110  0.5520990    0.00000       Uiso       1.00
      C186          C  0.6657710  0.5329290  0.5149700    0.00000       Uiso       1.00
      C187          C  0.6898380  0.5517980  0.6632530    0.00000       Uiso       1.00
      C188          C  0.7135210  0.5490090  0.6563080    0.00000       Uiso       1.00
      C189          C  0.7134290  0.5275470  0.4976760    0.00000       Uiso       1.00
      C190          C  0.6895640  0.5094910  0.3396040    0.00000       Uiso       1.00
      C191          C  0.6659850  0.5121780  0.3462640    0.00000       Uiso       1.00
      C192          C  0.7378180  0.5236550  0.4981960    0.00000       Uiso       1.00
      C193          C  0.5080840  0.6256010  0.5780400    0.00000       Uiso       1.00
      C194          C  0.5096870  0.6526210  0.5550260    0.00000       Uiso       1.00
      C195          C  0.4898300  0.6573270  0.6900810    0.00000       Uiso       1.00
      C196          C  0.4912370  0.6830570  0.6657290    0.00000       Uiso       1.00
      C197          C  0.5130140  0.7047940  0.5128820    0.00000       Uiso       1.00
      C198          C  0.5329310  0.6999260  0.3800920    0.00000       Uiso       1.00
      C199          C  0.5311480  0.6741030  0.3961150    0.00000       Uiso       1.00
      C200          C  0.5158280  0.7325181  0.5025020    0.00000       Uiso       1.00
      C201          C  0.4926430  0.7366030  0.5017260    0.00000       Uiso       1.00
      C202          C  0.5427980  0.7563080  0.5004400    0.00000       Uiso       1.00
      C203          C  0.4962270  0.7632740  0.4979370    0.00000       Uiso       1.00
      C204          C  0.7649950  0.5468460  0.5004550    0.00000       Uiso       1.00
      H205          H  0.5269000  0.4787000  0.8134970    0.00000       Uiso       1.00
      H206          H  0.5593000  0.5472000  0.2032990    0.00000       Uiso       1.00
      H207          H  0.6050000  0.5479000  0.1918990    0.00000       Uiso       1.00
      H208          H  0.5725000  0.4794000  0.8055970    0.00000       Uiso       1.00
      H209          H  0.5510000  0.5564000  0.7989980    0.00000       Uiso       1.00
      H210          H  0.5583000  0.6048000  0.8024970    0.00000       Uiso       1.00
      H211          H  0.4901000  0.5792000  0.1945990    0.00000       Uiso       1.00
      H212          H  0.4829000  0.5309000  0.1908990    0.00000       Uiso       1.00
      H213          H  0.6413000  0.5527000  0.6594980    0.00000       Uiso       1.00
      H214          H  0.6888000  0.5677000  0.8086970    0.00000       Uiso       1.00
      H215          H  0.7314000  0.5626000  0.7961970    0.00000       Uiso       1.00
      H216          H  0.6896000  0.4934000  0.1956990    0.00000       Uiso       1.00
      H217          H  0.6465000  0.4982000  0.2154990    0.00000       Uiso       1.00
      H218          H  0.4884000  0.6076000  0.6737980    0.00000       Uiso       1.00
      H219          H  0.4736000  0.6401000  0.8345970    0.00000       Uiso       1.00
      H220          H  0.4762000  0.6865000  0.7899980    0.00000       Uiso       1.00
      H221          H  0.5494000  0.7161999  0.2445990    0.00000       Uiso       1.00
      H222          H  0.5459000  0.6690000  0.2788990    0.00000       Uiso       1.00
      H223          H  0.4719000  0.7178000  0.5019980    0.00000       Uiso       1.00
      H224          H  0.5613000  0.7530000  0.5046980    0.00000       Uiso       1.00
      H225          H  0.7127000  0.4783000  0.4983980    0.00000       Uiso       1.00
      H226          H  0.7668000  0.5676000  0.4996980    0.00000       Uiso       1.00
      N227          N  0.6162220  0.5129470  0.4839860    0.00000       Uiso       1.00
      N228          N  0.5282910  0.6218320  0.5027060    0.00000       Uiso       1.00
      C229          C  0.4879000  0.0007000  0.4998980    0.00000       Uiso       1.00
      C230          C  0.4874890  0.0273680  0.5048960    0.00000       Uiso       1.00
      C231          C  0.4677230  0.0301680  0.3424420    0.00000       Uiso       1.00
      C232          C  0.4668120  0.0548270  0.3394120    0.00000       Uiso       1.00
      C233          C  0.4862650  0.0779040  0.4985430    0.00000       Uiso       1.00
      C234          C  0.5059240  0.0753110  0.6641070    0.00000       Uiso       1.00
      C235          C  0.5061350  0.0504380  0.6692640    0.00000       Uiso       1.00
      C236          C  0.4595810  0.9758610  0.4956070    0.00000       Uiso       1.00
      C237          C  0.4383120  0.9759111  0.6582330    0.00000       Uiso       1.00
      C238          C  0.4113480  0.9532970  0.6595850    0.00000       Uiso       1.00
      C239          C  0.4050060  0.9293800  0.5017540    0.00000       Uiso       1.00
      C240          C  0.4259800  0.9290649  0.3375040    0.00000       Uiso       1.00
      C241          C  0.4526730  0.9520670  0.3328680    0.00000       Uiso       1.00
      C242          C  0.4661880  0.1061710  0.5520990    0.00000       Uiso       1.00
      C243          C  0.4670710  0.1328420  0.5149700    0.00000       Uiso       1.00
      C244          C  0.4482010  0.1380400  0.6632530    0.00000       Uiso       1.00
      C245          C  0.4509900  0.1645120  0.6563080    0.00000       Uiso       1.00
      C246          C  0.4724520  0.1858810  0.4976760    0.00000       Uiso       1.00
      C247          C  0.4905090  0.1800730  0.3396040    0.00000       Uiso       1.00
      C248          C  0.4878220  0.1538080  0.3462640    0.00000       Uiso       1.00
      C249          C  0.4763450  0.2141640  0.4981960    0.00000       Uiso       1.00
      C250          C  0.3743980  0.8824820  0.5780400    0.00000       Uiso       1.00
      C251          C  0.3473780  0.8570660  0.5550260    0.00000       Uiso       1.00
      C252          C  0.3426730  0.8325019  0.6900810    0.00000       Uiso       1.00
      C253          C  0.3169430  0.8081800  0.6657290    0.00000       Uiso       1.00
      C254          C  0.2952050  0.8082190  0.5128820    0.00000       Uiso       1.00
      C255          C  0.3000740  0.8330050  0.3800920    0.00000       Uiso       1.00
      C256          C  0.3258970  0.8570450  0.3961150    0.00000       Uiso       1.00
      C257          C  0.2674810  0.7833090  0.5025020    0.00000       Uiso       1.00
      C258          C  0.2633960  0.7560391  0.5017260    0.00000       Uiso       1.00
      C259          C  0.2436920  0.7864900  0.5004400    0.00000       Uiso       1.00
      C260          C  0.2367260  0.7329519  0.4979370    0.00000       Uiso       1.00
      C261          C  0.4531540  0.2181490  0.5004550    0.00000       Uiso       1.00
      H262          H  0.5213000  0.0482000  0.8134970    0.00000       Uiso       1.00
      H263          H  0.4528000  0.0121000  0.2032990    0.00000       Uiso       1.00
      H264          H  0.4521000  0.0571000  0.1918990    0.00000       Uiso       1.00
      H265          H  0.5206000  0.0931000  0.8055970    0.00000       Uiso       1.00
      H266          H  0.4436000  0.9945990  0.7989980    0.00000       Uiso       1.00
      H267          H  0.3952000  0.9534990  0.8024970    0.00000       Uiso       1.00
      H268          H  0.4208000  0.9108990  0.1945990    0.00000       Uiso       1.00
      H269          H  0.4691000  0.9520000  0.1908990    0.00000       Uiso       1.00
      H270          H  0.4473000  0.0886000  0.6594980    0.00000       Uiso       1.00
      H271          H  0.4323000  0.1211000  0.8086970    0.00000       Uiso       1.00
      H272          H  0.4374000  0.1688000  0.7961970    0.00000       Uiso       1.00
      H273          H  0.5066000  0.1962000  0.1956990    0.00000       Uiso       1.00
      H274          H  0.5018000  0.1483000  0.2154990    0.00000       Uiso       1.00
      H275          H  0.3924000  0.8808000  0.6737980    0.00000       Uiso       1.00
      H276          H  0.3599000  0.8334990  0.8345970    0.00000       Uiso       1.00
      H277          H  0.3135000  0.7897000  0.7899980    0.00000       Uiso       1.00
      H278          H  0.2838000  0.8332000  0.2445990    0.00000       Uiso       1.00
      H279          H  0.3310000  0.8769000  0.2788990    0.00000       Uiso       1.00
      H280          H  0.2822000  0.7541000  0.5019980    0.00000       Uiso       1.00
      H281          H  0.2470000  0.8083001  0.5046980    0.00000       Uiso       1.00
      H282          H  0.5217000  0.2344000  0.4983980    0.00000       Uiso       1.00
      H283          H  0.4324000  0.1992000  0.4996980    0.00000       Uiso       1.00
      N284          N  0.4870520  0.1032750  0.4839860    0.00000       Uiso       1.00
      N285          N  0.3781680  0.9064590  0.5027060    0.00000       Uiso       1.00
      C286          C  0.9992990  0.4872000  0.4998980    0.00000       Uiso       1.00
      C287          C  0.9726320  0.4601210  0.5048960    0.00000       Uiso       1.00
      C288          C  0.9698320  0.4375550  0.3424420    0.00000       Uiso       1.00
      C289          C  0.9451730  0.4119850  0.3394120    0.00000       Uiso       1.00
      C290          C  0.9220950  0.4083610  0.4985430    0.00000       Uiso       1.00
      C291          C  0.9246891  0.4306130  0.6641070    0.00000       Uiso       1.00
      C292          C  0.9495610  0.4556970  0.6692640    0.00000       Uiso       1.00
      C293          C  0.0241380  0.4837190  0.4956070    0.00000       Uiso       1.00
      C294          C  0.0240880  0.4624000  0.6582330    0.00000       Uiso       1.00
      C295          C  0.0467030  0.4580510  0.6595850    0.00000       Uiso       1.00
      C296          C  0.0706200  0.4756260  0.5017540    0.00000       Uiso       1.00
      C297          C  0.0709340  0.4969140  0.3375040    0.00000       Uiso       1.00
      C298          C  0.0479330  0.5006060  0.3328680    0.00000       Uiso       1.00
      C299          C  0.8938279  0.3600170  0.5520990    0.00000       Uiso       1.00
      C300          C  0.8671580  0.3342290  0.5149700    0.00000       Uiso       1.00
      C301          C  0.8619599  0.3101620  0.6632530    0.00000       Uiso       1.00
      C302          C  0.8354870  0.2864780  0.6563080    0.00000       Uiso       1.00
      C303          C  0.8141180  0.2865710  0.4976760    0.00000       Uiso       1.00
      C304          C  0.8199260  0.3104360  0.3396040    0.00000       Uiso       1.00
      C305          C  0.8461919  0.3340140  0.3462640    0.00000       Uiso       1.00
      C306          C  0.7858360  0.2621810  0.4981960    0.00000       Uiso       1.00
      C307          C  0.1175180  0.4919160  0.5780400    0.00000       Uiso       1.00
      C308          C  0.1429340  0.4903120  0.5550260    0.00000       Uiso       1.00
      C309          C  0.1674970  0.5101700  0.6900810    0.00000       Uiso       1.00
      C310          C  0.1918200  0.5087630  0.6657290    0.00000       Uiso       1.00
      C311          C  0.1917810  0.4869860  0.5128820    0.00000       Uiso       1.00
      C312          C  0.1669950  0.4670690  0.3800920    0.00000       Uiso       1.00
      C313          C  0.1429540  0.4688510  0.3961150    0.00000       Uiso       1.00
      C314          C  0.2166900  0.4841710  0.5025020    0.00000       Uiso       1.00
      C315          C  0.2439610  0.5073570  0.5017260    0.00000       Uiso       1.00
      C316          C  0.2135090  0.4572010  0.5004400    0.00000       Uiso       1.00
      C317          C  0.2670470  0.5037730  0.4979370    0.00000       Uiso       1.00
      C318          C  0.7818500  0.2350040  0.5004550    0.00000       Uiso       1.00
      H319          H  0.9517990  0.4731000  0.8134970    0.00000       Uiso       1.00
      H320          H  0.9878990  0.4407000  0.2032990    0.00000       Uiso       1.00
      H321          H  0.9429000  0.3950000  0.1918990    0.00000       Uiso       1.00
      H322          H  0.9069000  0.4275000  0.8055970    0.00000       Uiso       1.00
      H323          H  0.0054000  0.4490000  0.7989980    0.00000       Uiso       1.00
      H324          H  0.0465000  0.4417000  0.8024970    0.00000       Uiso       1.00
      H325          H  0.0891000  0.5099000  0.1945990    0.00000       Uiso       1.00
      H326          H  0.0480000  0.5171000  0.1908990    0.00000       Uiso       1.00
      H327          H  0.9114000  0.3587000  0.6594980    0.00000       Uiso       1.00
      H328          H  0.8789000  0.3112000  0.8086970    0.00000       Uiso       1.00
      H329          H  0.8312001  0.2686000  0.7961970    0.00000       Uiso       1.00
      H330          H  0.8038000  0.3104000  0.1956990    0.00000       Uiso       1.00
      H331          H  0.8517000  0.3535000  0.2154990    0.00000       Uiso       1.00
      H332          H  0.1192000  0.5116000  0.6737980    0.00000       Uiso       1.00
      H333          H  0.1665000  0.5264000  0.8345970    0.00000       Uiso       1.00
      H334          H  0.2103000  0.5238000  0.7899980    0.00000       Uiso       1.00
      H335          H  0.1668000  0.4506000  0.2445990    0.00000       Uiso       1.00
      H336          H  0.1231000  0.4541000  0.2788990    0.00000       Uiso       1.00
      H337          H  0.2459000  0.5281000  0.5019980    0.00000       Uiso       1.00
      H338          H  0.1917000  0.4387000  0.5046980    0.00000       Uiso       1.00
      H339          H  0.7656000  0.2873000  0.4983980    0.00000       Uiso       1.00
      H340          H  0.8008000  0.2332000  0.4996980    0.00000       Uiso       1.00
      N341          N  0.8967251  0.3837770  0.4839860    0.00000       Uiso       1.00
      N342          N  0.0935410  0.4717090  0.5027060    0.00000       Uiso       1.00
