data_FL-COF-1
_audit_creation_date              0000-00-00
_audit_creation_method            'LanYouShi'
_symmetry_space_group_name_H-M    'P1'
_cell_length_a                    29.1429005
_cell_length_b                    29.1429005
_cell_length_c                    3.5090001
_cell_angle_alpha                 90.0000000
_cell_angle_beta                  90.0000000
_cell_angle_gamma                 120.0000000
loop_
_atom_site_label
_atom_site_type_symbol
_atom_site_fract_x
_atom_site_fract_y
_atom_site_fract_z
_atom_site_U_iso_or_equiv
_atom_site_adp_type
_atom_site_occupancy
        N1          N  0.3701450  0.5605960  0.0000000    0.00000       Uiso       1.00
        N2          N  0.5734180  0.3866300  0.0000000    0.00000       Uiso       1.00
        N3          N  0.4394050  0.8095500  0.0000000    0.00000       Uiso       1.00
        N4          N  0.6133720  0.1867880  0.0000000    0.00000       Uiso       1.00
        N5          N  0.1904520  0.6298570  0.0000000    0.00000       Uiso       1.00
        N6          N  0.8132140  0.4265840  0.0000000    0.00000       Uiso       1.00
        C7          C  0.3067720  0.6111520  0.0000000    0.00000       Uiso       1.00
        C8          C  0.6705300  0.3832410  0.0000000    0.00000       Uiso       1.00
        C9          C  0.3888490  0.6956210  0.0000000    0.00000       Uiso       1.00
       C10          C  0.6167610  0.2872890  0.0000000    0.00000       Uiso       1.00
       C11          C  0.3043810  0.6932300  0.0000000    0.00000       Uiso       1.00
       C12          C  0.7127130  0.3294720  0.0000000    0.00000       Uiso       1.00
       C13          C  0.3930300  0.6140080  0.0000000    0.00000       Uiso       1.00
       C14          C  0.5727400  0.3398860  0.0000000    0.00000       Uiso       1.00
       C15          C  0.3859940  0.7790239  0.0000000    0.00000       Uiso       1.00
       C16          C  0.6601150  0.2328540  0.0000000    0.00000       Uiso       1.00
       C17          C  0.2209780  0.6069720  0.0000000    0.00000       Uiso       1.00
       C18          C  0.7671480  0.4272610  0.0000000    0.00000       Uiso       1.00
       C19          C  0.3914750  0.5286060  0.0000000    0.00000       Uiso       1.00
       C20          C  0.5336040  0.3978910  0.0000000    0.00000       Uiso       1.00
       C21          C  0.4713950  0.8628699  0.0000000    0.00000       Uiso       1.00
       C22          C  0.6021110  0.1357130  0.0000000    0.00000       Uiso       1.00
       C23          C  0.1371310  0.6085270  0.0000000    0.00000       Uiso       1.00
       C24          C  0.8642890  0.4663970  0.0000000    0.00000       Uiso       1.00
       C25          C  0.4466660  0.5468490  0.0000000    0.00000       Uiso       1.00
       C26          C  0.4787560  0.3593160  0.0000000    0.00000       Uiso       1.00
       C27          C  0.4531530  0.8998190  0.0000000    0.00000       Uiso       1.00
       C28          C  0.6406850  0.1194400  0.0000000    0.00000       Uiso       1.00
       C29          C  0.1001830  0.5533360  0.0000000    0.00000       Uiso       1.00
       C30          C  0.8805620  0.5212450  0.0000000    0.00000       Uiso       1.00
       C31          C  0.4637970  0.5095390  0.0000000    0.00000       Uiso       1.00
       C32          C  0.4397370  0.3744570  0.0000000    0.00000       Uiso       1.00
       C33          C  0.4904620  0.9542600  0.0000000    0.00000       Uiso       1.00
       C34          C  0.6255450  0.0652810  0.0000000    0.00000       Uiso       1.00
       C35          C  0.0457420  0.5362040  0.0000000    0.00000       Uiso       1.00
       C36          C  0.9347210  0.5602640  0.0000000    0.00000       Uiso       1.00
       C37          C  0.4274820  0.4551890  0.0000000    0.00000       Uiso       1.00
       C38          C  0.4561980  0.4287280  0.0000000    0.00000       Uiso       1.00
       C39          C  0.5448130  0.9722950  0.0000000    0.00000       Uiso       1.00
       C40          C  0.5712740  0.0274700  0.0000000    0.00000       Uiso       1.00
       C41          C  0.0277070  0.5725200  0.0000000    0.00000       Uiso       1.00
       C42          C  0.9725320  0.5438040  0.0000000    0.00000       Uiso       1.00
       C43          C  0.3726890  0.4362200  0.0000000    0.00000       Uiso       1.00
       C44          C  0.5099770  0.4669820  0.0000000    0.00000       Uiso       1.00
       C45          C  0.5637820  0.9364709  0.0000000    0.00000       Uiso       1.00
       C46          C  0.5330200  0.0429950  0.0000000    0.00000       Uiso       1.00
       C47          C  0.0635310  0.6273130  0.0000000    0.00000       Uiso       1.00
       C48          C  0.9570070  0.4900250  0.0000000    0.00000       Uiso       1.00
       C49          C  0.3550980  0.4733520  0.0000000    0.00000       Uiso       1.00
       C50          C  0.5491410  0.4523100  0.0000000    0.00000       Uiso       1.00
       C51          C  0.5266490  0.8817470  0.0000000    0.00000       Uiso       1.00
       C52          C  0.5476910  0.0968310  0.0000000    0.00000       Uiso       1.00
       C53          C  0.1182550  0.6449040  0.0000000    0.00000       Uiso       1.00
       C54          C  0.9031710  0.4508600  0.0000000    0.00000       Uiso       1.00
       C55          C  0.3628360  0.6396450  0.0000000    0.00000       Uiso       1.00
       C56          C  0.6197680  0.3372390  0.0000000    0.00000       Uiso       1.00
       C57          C  0.3603570  0.7231930  0.0000000    0.00000       Uiso       1.00
       C58          C  0.6627630  0.2825290  0.0000000    0.00000       Uiso       1.00
       C59          C  0.2768090  0.6371660  0.0000000    0.00000       Uiso       1.00
       C60          C  0.7174720  0.3802330  0.0000000    0.00000       Uiso       1.00
       H61          H  0.4334440  0.6365730  0.0000000    0.00000       Uiso       1.00
       H62          H  0.5371190  0.3053780  0.0000000    0.00000       Uiso       1.00
       H63          H  0.3634290  0.7968730  0.0000000    0.00000       Uiso       1.00
       H64          H  0.6946240  0.2317410  0.0000000    0.00000       Uiso       1.00
       H65          H  0.2031290  0.5665570  0.0000000    0.00000       Uiso       1.00
       H66          H  0.7682600  0.4628830  0.0000000    0.00000       Uiso       1.00
       H67          H  0.6734870  0.4197700  0.0000000    0.00000       Uiso       1.00
       H68          H  0.2872440  0.5705810  0.0000000    0.00000       Uiso       1.00
       C69          C  0.4829220  0.9978580  0.0000000    0.00000       Uiso       1.00
       H70          H  0.4741550  0.5862700  0.0000000    0.00000       Uiso       1.00
       H71          H  0.3460980  0.3964810  0.0000000    0.00000       Uiso       1.00
       H72          H  0.3151830  0.4596310  0.0000000    0.00000       Uiso       1.00
       H73          H  0.4664900  0.3198220  0.0000000    0.00000       Uiso       1.00
       H74          H  0.4003990  0.3464770  0.0000000    0.00000       Uiso       1.00
       H75          H  0.5883270  0.4809600  0.0000000    0.00000       Uiso       1.00
       H76          H  0.4473930  0.9969070  0.0000000    0.00000       Uiso       1.00
       H77          H  0.5802320  0.2537170  0.0000000    0.00000       Uiso       1.00
       H78          H  0.4294210  0.7166650  0.0000000    0.00000       Uiso       1.00
       C79          C  0.0021440  0.4850660  0.0000000    0.00000       Uiso       1.00
       H80          H  0.4137320  0.8878870  0.0000000    0.00000       Uiso       1.00
       H81          H  0.6035210  0.9496190  0.0000000    0.00000       Uiso       1.00
       H82          H  0.5403700  0.8555530  0.0000000    0.00000       Uiso       1.00
       H83          H  0.6801790  0.1466680  0.0000000    0.00000       Uiso       1.00
       H84          H  0.6535250  0.0539220  0.0000000    0.00000       Uiso       1.00
       H85          H  0.5190420  0.1073680  0.0000000    0.00000       Uiso       1.00
       H86          H  0.0030950  0.4504880  0.0000000    0.00000       Uiso       1.00
       H87          H  0.7462850  0.3265150  0.0000000    0.00000       Uiso       1.00
       H88          H  0.2833370  0.7127580  0.0000000    0.00000       Uiso       1.00
       C89          C  0.5149350  0.5170790  0.0000000    0.00000       Uiso       1.00
       H90          H  0.1121150  0.5258470  0.0000000    0.00000       Uiso       1.00
       H91          H  0.0503830  0.6539031  0.0000000    0.00000       Uiso       1.00
       H92          H  0.1444480  0.6848190  0.0000000    0.00000       Uiso       1.00
       H93          H  0.8533340  0.5335110  0.0000000    0.00000       Uiso       1.00
       H94          H  0.9460800  0.5996030  0.0000000    0.00000       Uiso       1.00
       H95          H  0.8926340  0.4116740  0.0000000    0.00000       Uiso       1.00
       H96          H  0.5495140  0.5526080  0.0000000    0.00000       Uiso       1.00
