data_FLT-COF-1_Eclipsed
_audit_creation_date              0000-00-00
_audit_creation_method            'LanYouShi'
_symmetry_space_group_name_H-M    'P1'
_cell_length_a                    43.7554016
_cell_length_b                    43.7554016
_cell_length_c                    3.8921001
_cell_angle_alpha                 90.0000000
_cell_angle_beta                  90.0000000
_cell_angle_gamma                 120.0000000
loop_
_atom_site_label
_atom_site_type_symbol
_atom_site_fract_x
_atom_site_fract_y
_atom_site_fract_z
_atom_site_U_iso_or_equiv
_atom_site_adp_type
_atom_site_occupancy
       xx1          C  0.4392800  0.5241900 -0.4373000    0.00000       Uiso       1.00
       xx2          C  0.4263500  0.5470800 -0.4951600    0.00000       Uiso       1.00
       xx3          H  0.4645600  0.5309100 -0.5472100    0.00000       Uiso       1.00
       xx4          H  0.4419300  0.5706800 -0.6466600    0.00000       Uiso       1.00
       xx5          C  0.4866300  0.3877800  0.0966700    0.00000       Uiso       1.00
       xx6          C  0.5084600  0.3738100  0.1710800    0.00000       Uiso       1.00
       xx7          H  0.4650000  0.3736000 -0.0788900    0.00000       Uiso       1.00
       xx8          H  0.5023300  0.3486500  0.0607300    0.00000       Uiso       1.00
       xx9          C  0.5241900  0.4392800  0.4373000    0.00000       Uiso       1.00
      xx10          C  0.5470800  0.4263500  0.4951600    0.00000       Uiso       1.00
      xx11          H  0.5309100  0.4645600  0.5472100    0.00000       Uiso       1.00
      xx12          H  0.5706800  0.4419300  0.6466600    0.00000       Uiso       1.00
      xx13          C  0.3877800  0.4866300 -0.0966700    0.00000       Uiso       1.00
      xx14          C  0.3738100  0.5084600 -0.1710800    0.00000       Uiso       1.00
      xx15          H  0.3736000  0.4650000  0.0788900    0.00000       Uiso       1.00
      xx16          H  0.3486500  0.5023300 -0.0607300    0.00000       Uiso       1.00
      xx17          H  0.5190500  0.4891300  0.0934100    0.00000       Uiso       1.00
      xx18          H  0.4891300  0.5190500 -0.0934100    0.00000       Uiso       1.00
      xx19          C  0.4907500  0.4734700  0.0611100    0.00000       Uiso       1.00
      xx20          C  0.4734700  0.4907500 -0.0611000    0.00000       Uiso       1.00
      xx21          C  0.4370600  0.4724900 -0.1330900    0.00000       Uiso       1.00
      xx22          C  0.4202800  0.4935700 -0.2359000    0.00000       Uiso       1.00
      xx23          C  0.3934400  0.5391900 -0.3646600    0.00000       Uiso       1.00
      xx24          B  0.3797600  0.5654500 -0.4234900    0.00000       Uiso       1.00
      xx25          C  0.3533000  0.4074700 -0.3130200    0.00000       Uiso       1.00
      xx26          C  0.3165900  0.3449500 -0.1600600    0.00000       Uiso       1.00
      xx27          C  0.3457600  0.3457600  0.0000000    0.00000       Uiso       1.00
      xx28          C  0.3775300  0.3775300  0.0000000    0.00000       Uiso       1.00
      xx29          C  0.3815700  0.4081500 -0.1369500    0.00000       Uiso       1.00
      xx30          C  0.4081500  0.3815700  0.1369500    0.00000       Uiso       1.00
      xx31          C  0.4074700  0.3533000  0.3130200    0.00000       Uiso       1.00
      xx32          C  0.3757600  0.3205600  0.3189400    0.00000       Uiso       1.00
      xx33          C  0.3449500  0.3165900  0.1600600    0.00000       Uiso       1.00
      xx34          C  0.4186900  0.4356100 -0.0752200    0.00000       Uiso       1.00
      xx35          C  0.4356100  0.4186900  0.0752200    0.00000       Uiso       1.00
      xx36          C  0.4724900  0.4370600  0.1330900    0.00000       Uiso       1.00
      xx37          C  0.4935700  0.4202800  0.2359000    0.00000       Uiso       1.00
      xx38          C  0.5391900  0.3934400  0.3646600    0.00000       Uiso       1.00
      xx39          B  0.5654500  0.3797600  0.4234900    0.00000       Uiso       1.00
      xx40          H  0.3560700  0.4300800 -0.4490300    0.00000       Uiso       1.00
      xx41          H  0.2983900  0.3748900 -0.4513700    0.00000       Uiso       1.00
      xx42          H  0.2913200  0.3207900 -0.1679000    0.00000       Uiso       1.00
      xx43          H  0.4300800  0.3560700  0.4490300    0.00000       Uiso       1.00
      xx44          H  0.3748900  0.2983900  0.4513700    0.00000       Uiso       1.00
      xx45          H  0.3207900  0.2913200  0.1679000    0.00000       Uiso       1.00
      xx46          C  0.3252000  0.6307900 -0.4682800    0.00000       Uiso       1.00
      xx47          C  0.3612000  0.6587300 -0.4813200    0.00000       Uiso       1.00
      xx48          C  0.2616100  0.6117600 -0.5099900    0.00000       Uiso       1.00
      xx49          C  0.2352000  0.6203200 -0.4866700    0.00000       Uiso       1.00
      xx50          C  0.2428400  0.6542500 -0.4331300    0.00000       Uiso       1.00
      xx51          C  0.2773800  0.6818800 -0.4276100    0.00000       Uiso       1.00
      xx52          H  0.2533900  0.5843700 -0.5516800    0.00000       Uiso       1.00
      xx53          O  0.1993800  0.5964400 -0.4917800    0.00000       Uiso       1.00
      xx54          O  0.2130800  0.6572300 -0.3846800    0.00000       Uiso       1.00
      xx55          H  0.2812200  0.7078400 -0.3806400    0.00000       Uiso       1.00
      xx56          C  0.6587300  0.3612000  0.4813200    0.00000       Uiso       1.00
      xx57          C  0.6307900  0.3252000  0.4682800    0.00000       Uiso       1.00
      xx58          C  0.7226200  0.4045000  0.4276200    0.00000       Uiso       1.00
      xx59          C  0.7571600  0.4114100  0.4331300    0.00000       Uiso       1.00
      xx60          C  0.7648000  0.3851200  0.4866700    0.00000       Uiso       1.00
      xx61          C  0.7383900  0.3501500  0.5099900    0.00000       Uiso       1.00
      xx62          H  0.7187800  0.4266100  0.3806400    0.00000       Uiso       1.00
      xx63          O  0.7869200  0.4441500  0.3846900    0.00000       Uiso       1.00
      xx64          O  0.8006200  0.3970600  0.4917800    0.00000       Uiso       1.00
      xx65          H  0.7466100  0.3309800  0.5516800    0.00000       Uiso       1.00
      xx66          C  0.3205600  0.3757600 -0.3189400    0.00000       Uiso       1.00
      xx67          C  0.4758100  0.9150900 -0.4373000    0.00000       Uiso       1.00
      xx68          C  0.4529200  0.8792700 -0.4951600    0.00000       Uiso       1.00
      xx69          H  0.4690900  0.9336500 -0.5472100    0.00000       Uiso       1.00
      xx70          H  0.4293200  0.8712500 -0.6466600    0.00000       Uiso       1.00
      xx71          C  0.6122200  0.0988500  0.0966700    0.00000       Uiso       1.00
      xx72          C  0.6261900  0.1346500  0.1710800    0.00000       Uiso       1.00
      xx73          H  0.6264000  0.0914000 -0.0788900    0.00000       Uiso       1.00
      xx74          H  0.6513500  0.1536800  0.0607300    0.00000       Uiso       1.00
      xx75          C  0.5607200  0.0849100  0.4373000    0.00000       Uiso       1.00
      xx76          C  0.5736500  0.1207300  0.4951600    0.00000       Uiso       1.00
      xx77          H  0.5354400  0.0663500  0.5472100    0.00000       Uiso       1.00
      xx78          H  0.5580700  0.1287500  0.6466600    0.00000       Uiso       1.00
      xx79          C  0.5133700  0.9011500 -0.0966700    0.00000       Uiso       1.00
      xx80          C  0.4915400  0.8653500 -0.1710800    0.00000       Uiso       1.00
      xx81          H  0.5350000  0.9085999  0.0788900    0.00000       Uiso       1.00
      xx82          H  0.4976700  0.8463200 -0.0607300    0.00000       Uiso       1.00
      xx83          H  0.5108700  0.0299200  0.0934100    0.00000       Uiso       1.00
      xx84          H  0.4809500  0.9700800 -0.0934100    0.00000       Uiso       1.00
      xx85          C  0.5265300  0.0172800  0.0611100    0.00000       Uiso       1.00
      xx86          C  0.5092500  0.9827200 -0.0611000    0.00000       Uiso       1.00
      xx87          C  0.5275100  0.9645699 -0.1330900    0.00000       Uiso       1.00
      xx88          C  0.5064300  0.9267099 -0.2359000    0.00000       Uiso       1.00
      xx89          C  0.4608100  0.8542500 -0.3646600    0.00000       Uiso       1.00
      xx90          B  0.4345500  0.8143100 -0.4234900    0.00000       Uiso       1.00
      xx91          C  0.5925300  0.9458300 -0.3130200    0.00000       Uiso       1.00
      xx92          C  0.6550500  0.9716399 -0.1600600    0.00000       Uiso       1.00
      xx93          C  0.6542400  0.0000000  0.0000000    0.00000       Uiso       1.00
      xx94          C  0.6224700  0.0000000  0.0000000    0.00000       Uiso       1.00
      xx95          C  0.5918500  0.9734200 -0.1369500    0.00000       Uiso       1.00
      xx96          C  0.6184300  0.0265800  0.1369500    0.00000       Uiso       1.00
      xx97          C  0.6467000  0.0541700  0.3130200    0.00000       Uiso       1.00
      xx98          C  0.6794400  0.0552000  0.3189400    0.00000       Uiso       1.00
      xx99          C  0.6834100  0.0283600  0.1600600    0.00000       Uiso       1.00
     xx100          C  0.5643900  0.9830800 -0.0752200    0.00000       Uiso       1.00
     xx101          C  0.5813100  0.0169200  0.0752200    0.00000       Uiso       1.00
     xx102          C  0.5629400  0.0354300  0.1330900    0.00000       Uiso       1.00
     xx103          C  0.5797200  0.0732900  0.2359000    0.00000       Uiso       1.00
     xx104          C  0.6065600  0.1457500  0.3646600    0.00000       Uiso       1.00
     xx105          B  0.6202400  0.1856900  0.4234900    0.00000       Uiso       1.00
     xx106          H  0.5699200  0.9259900 -0.4490300    0.00000       Uiso       1.00
     xx107          H  0.6251100  0.9235000 -0.4513700    0.00000       Uiso       1.00
     xx108          H  0.6792100  0.9705300 -0.1679000    0.00000       Uiso       1.00
     xx109          H  0.6439300  0.0740100  0.4490300    0.00000       Uiso       1.00
     xx110          H  0.7016100  0.0765000  0.4513700    0.00000       Uiso       1.00
     xx111          H  0.7086800  0.0294700  0.1679000    0.00000       Uiso       1.00
     xx112          C  0.3692100  0.6944100 -0.4682800    0.00000       Uiso       1.00
     xx113          C  0.3412700  0.7024700 -0.4813200    0.00000       Uiso       1.00
     xx114          C  0.3882400  0.6498500 -0.5099900    0.00000       Uiso       1.00
     xx115          C  0.3796800  0.6148800 -0.4866700    0.00000       Uiso       1.00
     xx116          C  0.3457500  0.5885900 -0.4331300    0.00000       Uiso       1.00
     xx117          C  0.3181200  0.5955000 -0.4276100    0.00000       Uiso       1.00
     xx118          H  0.4156300  0.6690200 -0.5516800    0.00000       Uiso       1.00
     xx119          O  0.4035600  0.6029400 -0.4917800    0.00000       Uiso       1.00
     xx120          O  0.3427700  0.5558500 -0.3846800    0.00000       Uiso       1.00
     xx121          H  0.2921600  0.5733800 -0.3806400    0.00000       Uiso       1.00
     xx122          C  0.6388000  0.2975300  0.4813200    0.00000       Uiso       1.00
     xx123          C  0.6748000  0.3055900  0.4682800    0.00000       Uiso       1.00
     xx124          C  0.5955000  0.3181200  0.4276200    0.00000       Uiso       1.00
     xx125          C  0.5885900  0.3457500  0.4331300    0.00000       Uiso       1.00
     xx126          C  0.6148800  0.3796800  0.4866700    0.00000       Uiso       1.00
     xx127          C  0.6498500  0.3882400  0.5099900    0.00000       Uiso       1.00
     xx128          H  0.5733900  0.2921700  0.3806400    0.00000       Uiso       1.00
     xx129          O  0.5558500  0.3427700  0.3846900    0.00000       Uiso       1.00
     xx130          O  0.6029400  0.4035600  0.4917800    0.00000       Uiso       1.00
     xx131          H  0.6690200  0.4156300  0.5516800    0.00000       Uiso       1.00
     xx132          C  0.6242400  0.9448001 -0.3189400    0.00000       Uiso       1.00
     xx133          C  0.0849100  0.5607200 -0.4373000    0.00000       Uiso       1.00
     xx134          C  0.1207300  0.5736500 -0.4951600    0.00000       Uiso       1.00
     xx135          H  0.0663500  0.5354400 -0.5472100    0.00000       Uiso       1.00
     xx136          H  0.1287500  0.5580700 -0.6466600    0.00000       Uiso       1.00
     xx137          C  0.9011500  0.5133700  0.0966700    0.00000       Uiso       1.00
     xx138          C  0.8653500  0.4915400  0.1710800    0.00000       Uiso       1.00
     xx139          H  0.9086000  0.5350000 -0.0788900    0.00000       Uiso       1.00
     xx140          H  0.8463200  0.4976700  0.0607300    0.00000       Uiso       1.00
     xx141          C  0.9150900  0.4758100  0.4373000    0.00000       Uiso       1.00
     xx142          C  0.8792700  0.4529200  0.4951600    0.00000       Uiso       1.00
     xx143          H  0.9336500  0.4690900  0.5472100    0.00000       Uiso       1.00
     xx144          H  0.8712500  0.4293200  0.6466600    0.00000       Uiso       1.00
     xx145          C  0.0988500  0.6122200 -0.0966700    0.00000       Uiso       1.00
     xx146          C  0.1346500  0.6261900 -0.1710800    0.00000       Uiso       1.00
     xx147          H  0.0914000  0.6264000  0.0788900    0.00000       Uiso       1.00
     xx148          H  0.1536800  0.6513500 -0.0607300    0.00000       Uiso       1.00
     xx149          H  0.9700800  0.4809500  0.0934100    0.00000       Uiso       1.00
     xx150          H  0.0299200  0.5108700 -0.0934100    0.00000       Uiso       1.00
     xx151          C  0.9827200  0.5092500  0.0611100    0.00000       Uiso       1.00
     xx152          C  0.0172800  0.5265300 -0.0611000    0.00000       Uiso       1.00
     xx153          C  0.0354300  0.5629400 -0.1330900    0.00000       Uiso       1.00
     xx154          C  0.0732900  0.5797200 -0.2359000    0.00000       Uiso       1.00
     xx155          C  0.1457500  0.6065600 -0.3646600    0.00000       Uiso       1.00
     xx156          B  0.1856900  0.6202400 -0.4234900    0.00000       Uiso       1.00
     xx157          C  0.0541700  0.6467000 -0.3130200    0.00000       Uiso       1.00
     xx158          C  0.0283600  0.6834100 -0.1600600    0.00000       Uiso       1.00
     xx159          C -0.0000000  0.6542400  0.0000000    0.00000       Uiso       1.00
     xx160          C  0.0000000  0.6224700  0.0000000    0.00000       Uiso       1.00
     xx161          C  0.0265800  0.6184300 -0.1369500    0.00000       Uiso       1.00
     xx162          C  0.9734200  0.5918500  0.1369500    0.00000       Uiso       1.00
     xx163          C  0.9458300  0.5925300  0.3130200    0.00000       Uiso       1.00
     xx164          C  0.9448000  0.6242400  0.3189400    0.00000       Uiso       1.00
     xx165          C  0.9716400  0.6550500  0.1600600    0.00000       Uiso       1.00
     xx166          C  0.0169200  0.5813100 -0.0752200    0.00000       Uiso       1.00
     xx167          C  0.9830800  0.5643900  0.0752200    0.00000       Uiso       1.00
     xx168          C  0.9645700  0.5275100  0.1330900    0.00000       Uiso       1.00
     xx169          C  0.9267100  0.5064300  0.2359000    0.00000       Uiso       1.00
     xx170          C  0.8542500  0.4608100  0.3646600    0.00000       Uiso       1.00
     xx171          B  0.8143100  0.4345500  0.4234900    0.00000       Uiso       1.00
     xx172          H  0.0740100  0.6439300 -0.4490300    0.00000       Uiso       1.00
     xx173          H  0.0765000  0.7016100 -0.4513700    0.00000       Uiso       1.00
     xx174          H  0.0294700  0.7086800 -0.1679000    0.00000       Uiso       1.00
     xx175          H  0.9259900  0.5699200  0.4490300    0.00000       Uiso       1.00
     xx176          H  0.9235000  0.6251100  0.4513700    0.00000       Uiso       1.00
     xx177          H  0.9705300  0.6792100  0.1679000    0.00000       Uiso       1.00
     xx178          C  0.3055900  0.6748000 -0.4682800    0.00000       Uiso       1.00
     xx179          C  0.2975300  0.6388000 -0.4813200    0.00000       Uiso       1.00
     xx180          C  0.3501500  0.7383900 -0.5099900    0.00000       Uiso       1.00
     xx181          C  0.3851200  0.7648000 -0.4866700    0.00000       Uiso       1.00
     xx182          C  0.4114100  0.7571600 -0.4331300    0.00000       Uiso       1.00
     xx183          C  0.4045000  0.7226200 -0.4276100    0.00000       Uiso       1.00
     xx184          H  0.3309800  0.7466100 -0.5516800    0.00000       Uiso       1.00
     xx185          O  0.3970600  0.8006200 -0.4917800    0.00000       Uiso       1.00
     xx186          O  0.4441500  0.7869200 -0.3846800    0.00000       Uiso       1.00
     xx187          H  0.4266200  0.7187800 -0.3806400    0.00000       Uiso       1.00
     xx188          C  0.7024700  0.3412700  0.4813200    0.00000       Uiso       1.00
     xx189          C  0.6944100  0.3692100  0.4682800    0.00000       Uiso       1.00
     xx190          C  0.6818800  0.2773800  0.4276200    0.00000       Uiso       1.00
     xx191          C  0.6542500  0.2428400  0.4331300    0.00000       Uiso       1.00
     xx192          C  0.6203200  0.2352000  0.4866700    0.00000       Uiso       1.00
     xx193          C  0.6117600  0.2616100  0.5099900    0.00000       Uiso       1.00
     xx194          H  0.7078300  0.2812200  0.3806400    0.00000       Uiso       1.00
     xx195          O  0.6572300  0.2130800  0.3846900    0.00000       Uiso       1.00
     xx196          O  0.5964400  0.1993800  0.4917800    0.00000       Uiso       1.00
     xx197          H  0.5843700  0.2533900  0.5516800    0.00000       Uiso       1.00
     xx198          C  0.0552000  0.6794400 -0.3189400    0.00000       Uiso       1.00
