data_H2P-COF
_audit_creation_date              0000-00-00
_audit_creation_method            'LanYouShi'
_symmetry_space_group_name_H-M    'P1'
_cell_length_a                    39.3512993
_cell_length_b                    33.3956985
_cell_length_c                    6.7414999
_cell_angle_alpha                 90.0000000
_cell_angle_beta                  90.0000000
_cell_angle_gamma                 90.0000000
loop_
_atom_site_label
_atom_site_type_symbol
_atom_site_fract_x
_atom_site_fract_y
_atom_site_fract_z
_atom_site_U_iso_or_equiv
_atom_site_adp_type
_atom_site_occupancy
        C1          C  0.7409390  0.2904890  0.5000010    0.00000       Uiso       1.00
        C2          C  0.2409390  0.7904900  0.5000010    0.00000       Uiso       1.00
        C3          C  0.2590610  0.7095120  0.5000010    0.00000       Uiso       1.00
        C4          C  0.7590610  0.2095110  0.5000010    0.00000       Uiso       1.00
        C5          C  0.2590610  0.2904890  0.5000010    0.00000       Uiso       1.00
        C6          C  0.7590610  0.7904900  0.5000010    0.00000       Uiso       1.00
        C7          C  0.7409390  0.7095120  0.5000010    0.00000       Uiso       1.00
        C8          C  0.2409390  0.2095110  0.5000010    0.00000       Uiso       1.00
        C9          C  0.7842850  0.2390250  0.5000010    0.00000       Uiso       1.00
       C10          C  0.2842850  0.7390250  0.5000010    0.00000       Uiso       1.00
       C11          C  0.2157140  0.7609760  0.5000010    0.00000       Uiso       1.00
       C12          C  0.7157150  0.2609760  0.5000010    0.00000       Uiso       1.00
       C13          C  0.2157140  0.2390250  0.5000010    0.00000       Uiso       1.00
       C14          C  0.7157150  0.7390250  0.5000010    0.00000       Uiso       1.00
       C15          C  0.7842850  0.7609760  0.5000010    0.00000       Uiso       1.00
       C16          C  0.2842850  0.2609760  0.5000010    0.00000       Uiso       1.00
       C17          C  0.6983800  0.1885450  0.5000010    0.00000       Uiso       1.00
       C18          C  0.1983800  0.6885450  0.5000010    0.00000       Uiso       1.00
       C19          C  0.3016200  0.8114560  0.5000010    0.00000       Uiso       1.00
       C20          C  0.8016200  0.3114560  0.5000010    0.00000       Uiso       1.00
       C21          C  0.3016200  0.1885450  0.5000010    0.00000       Uiso       1.00
       C22          C  0.8016200  0.6885450  0.5000010    0.00000       Uiso       1.00
       C23          C  0.6983800  0.8114560  0.5000010    0.00000       Uiso       1.00
       C24          C  0.1983800  0.3114560  0.5000010    0.00000       Uiso       1.00
       C25          C  0.7754180  0.2797910  0.5000010    0.00000       Uiso       1.00
       C26          C  0.2754180  0.7797920  0.5000010    0.00000       Uiso       1.00
       C27          C  0.2245820  0.7202100  0.5000010    0.00000       Uiso       1.00
       C28          C  0.7245820  0.2202090  0.5000010    0.00000       Uiso       1.00
       C29          C  0.2245820  0.2797910  0.5000010    0.00000       Uiso       1.00
       C30          C  0.7245820  0.7797920  0.5000010    0.00000       Uiso       1.00
       C31          C  0.7754180  0.7202100  0.5000010    0.00000       Uiso       1.00
       C32          C  0.2754180  0.2202090  0.5000010    0.00000       Uiso       1.00
       N33          N  0.8337370  0.3025810  0.5000010    0.00000       Uiso       1.00
       N34          N  0.3337370  0.8025810  0.5000010    0.00000       Uiso       1.00
       N35          N  0.1662630  0.6974200  0.5000010    0.00000       Uiso       1.00
       N36          N  0.6662630  0.1974200  0.5000010    0.00000       Uiso       1.00
       N37          N  0.1662630  0.3025810  0.5000010    0.00000       Uiso       1.00
       N38          N  0.6662630  0.8025810  0.5000010    0.00000       Uiso       1.00
       N39          N  0.8337370  0.6974200  0.5000010    0.00000       Uiso       1.00
       N40          N  0.3337370  0.1974200  0.5000010    0.00000       Uiso       1.00
       N41          N  0.5583960  0.0000000  0.5000010    0.00000       Uiso       1.00
       N42          N  0.0583960  0.5000010  0.5000010    0.00000       Uiso       1.00
       N43          N  0.4416040  0.0000000  0.5000010    0.00000       Uiso       1.00
       N44          N  0.9416040  0.5000010  0.5000010    0.00000       Uiso       1.00
       H45          H  0.5340070  0.0000000  0.5000010    0.00000       Uiso       1.00
       H46          H  0.0340070  0.5000010  0.5000010    0.00000       Uiso       1.00
       H47          H  0.4659930  0.0000000  0.5000010    0.00000       Uiso       1.00
       H48          H  0.9659930  0.5000010  0.5000010    0.00000       Uiso       1.00
       C49          C  0.5769670  0.9663910  0.5000010    0.00000       Uiso       1.00
       C50          C  0.0769670  0.4663910  0.5000010    0.00000       Uiso       1.00
       C51          C  0.4230330  0.0336100  0.5000010    0.00000       Uiso       1.00
       C52          C  0.9230330  0.5336100  0.5000010    0.00000       Uiso       1.00
       C53          C  0.4230330  0.9663910  0.5000010    0.00000       Uiso       1.00
       C54          C  0.9230330  0.4663910  0.5000010    0.00000       Uiso       1.00
       C55          C  0.5769670  0.0336100  0.5000010    0.00000       Uiso       1.00
       C56          C  0.0769670  0.5336100  0.5000010    0.00000       Uiso       1.00
       C57          C  0.6106560  0.9789600  0.5000010    0.00000       Uiso       1.00
       C58          C  0.1106570  0.4789600  0.5000010    0.00000       Uiso       1.00
       C59          C  0.3893430  0.0210410  0.5000010    0.00000       Uiso       1.00
       C60          C  0.8893430  0.5210410  0.5000010    0.00000       Uiso       1.00
       C61          C  0.3893430  0.9789600  0.5000010    0.00000       Uiso       1.00
       C62          C  0.8893430  0.4789600  0.5000010    0.00000       Uiso       1.00
       C63          C  0.6106560  0.0210410  0.5000010    0.00000       Uiso       1.00
       C64          C  0.1106570  0.5210410  0.5000010    0.00000       Uiso       1.00
       H65          H  0.6328600  0.9598800  0.5000010    0.00000       Uiso       1.00
       H66          H  0.1328600  0.4598800  0.5000010    0.00000       Uiso       1.00
       H67          H  0.3671400  0.0401210  0.5000010    0.00000       Uiso       1.00
       H68          H  0.8671400  0.5401210  0.5000010    0.00000       Uiso       1.00
       H69          H  0.3671400  0.9598800  0.5000010    0.00000       Uiso       1.00
       H70          H  0.8671400  0.4598800  0.5000010    0.00000       Uiso       1.00
       H71          H  0.6328600  0.0401210  0.5000010    0.00000       Uiso       1.00
       H72          H  0.1328600  0.5401210  0.5000010    0.00000       Uiso       1.00
       N73          N  0.0000000  0.4332720  0.5000010    0.00000       Uiso       1.00
       N74          N  0.5000000  0.9332730  0.5000010    0.00000       Uiso       1.00
       N75          N  0.0000000  0.5667290  0.5000010    0.00000       Uiso       1.00
       N76          N  0.5000000  0.0667280  0.5000010    0.00000       Uiso       1.00
       C77          C  0.0299100  0.4097440  0.5000010    0.00000       Uiso       1.00
       C78          C  0.5299100  0.9097450  0.5000010    0.00000       Uiso       1.00
       C79          C  0.9700900  0.5902570  0.5000010    0.00000       Uiso       1.00
       C80          C  0.4700900  0.0902560  0.5000010    0.00000       Uiso       1.00
       C81          C  0.9700900  0.4097440  0.5000010    0.00000       Uiso       1.00
       C82          C  0.4700900  0.9097450  0.5000010    0.00000       Uiso       1.00
       C83          C  0.0299100  0.5902570  0.5000010    0.00000       Uiso       1.00
       C84          C  0.5299100  0.0902560  0.5000010    0.00000       Uiso       1.00
       C85          C  0.0171550  0.3681840  0.5000010    0.00000       Uiso       1.00
       C86          C  0.5171550  0.8681840  0.5000010    0.00000       Uiso       1.00
       C87          C  0.9828450  0.6318170  0.5000010    0.00000       Uiso       1.00
       C88          C  0.4828450  0.1318170  0.5000010    0.00000       Uiso       1.00
       C89          C  0.9828450  0.3681840  0.5000010    0.00000       Uiso       1.00
       C90          C  0.4828450  0.8681840  0.5000010    0.00000       Uiso       1.00
       C91          C  0.0171550  0.6318170  0.5000010    0.00000       Uiso       1.00
       C92          C  0.5171550  0.1318170  0.5000010    0.00000       Uiso       1.00
       H93          H  0.0327250  0.3414850  0.5000010    0.00000       Uiso       1.00
       H94          H  0.5327250  0.8414860  0.5000010    0.00000       Uiso       1.00
       H95          H  0.9672750  0.6585160  0.5000010    0.00000       Uiso       1.00
       H96          H  0.4672750  0.1585150  0.5000010    0.00000       Uiso       1.00
       H97          H  0.9672750  0.3414850  0.5000010    0.00000       Uiso       1.00
       H98          H  0.4672750  0.8414860  0.5000010    0.00000       Uiso       1.00
       H99          H  0.0327250  0.6585160  0.5000010    0.00000       Uiso       1.00
      H100          H  0.5327250  0.1585150  0.5000010    0.00000       Uiso       1.00
      C101          C  0.5634340  0.9229830  0.5000010    0.00000       Uiso       1.00
      C102          C  0.0634340  0.4229820  0.5000010    0.00000       Uiso       1.00
      C103          C  0.4365660  0.0770180  0.5000010    0.00000       Uiso       1.00
      C104          C  0.9365659  0.5770190  0.5000010    0.00000       Uiso       1.00
      C105          C  0.4365660  0.9229830  0.5000010    0.00000       Uiso       1.00
      C106          C  0.9365659  0.4229820  0.5000010    0.00000       Uiso       1.00
      C107          C  0.5634340  0.0770180  0.5000010    0.00000       Uiso       1.00
      C108          C  0.0634340  0.5770190  0.5000010    0.00000       Uiso       1.00
      C109          C  0.5899130  0.8917750  0.5000010    0.00000       Uiso       1.00
      C110          C  0.0899130  0.3917750  0.5000010    0.00000       Uiso       1.00
      C111          C  0.4100870  0.1082260  0.5000010    0.00000       Uiso       1.00
      C112          C  0.9100870  0.6082260  0.5000010    0.00000       Uiso       1.00
      C113          C  0.4100870  0.8917750  0.5000010    0.00000       Uiso       1.00
      C114          C  0.9100870  0.3917750  0.5000010    0.00000       Uiso       1.00
      C115          C  0.5899130  0.1082260  0.5000010    0.00000       Uiso       1.00
      C116          C  0.0899130  0.6082260  0.5000010    0.00000       Uiso       1.00
      C117          C  0.1026120  0.3769570  0.6798840    0.00000       Uiso       1.00
      C118          C  0.6026120  0.8769570  0.6798840    0.00000       Uiso       1.00
      C119          C  0.8973879  0.6230440  0.6798840    0.00000       Uiso       1.00
      C120          C  0.3973880  0.1230440  0.6798840    0.00000       Uiso       1.00
      C121          C  0.8973879  0.3769570  0.3201190    0.00000       Uiso       1.00
      C122          C  0.3973880  0.8769570  0.3201190    0.00000       Uiso       1.00
      C123          C  0.1026120  0.6230440  0.3201190    0.00000       Uiso       1.00
      C124          C  0.6026120  0.1230440  0.3201190    0.00000       Uiso       1.00
      C125          C  0.8973879  0.6230440  0.3201190    0.00000       Uiso       1.00
      C126          C  0.3973880  0.1230440  0.3201190    0.00000       Uiso       1.00
      C127          C  0.1026120  0.3769570  0.3201190    0.00000       Uiso       1.00
      C128          C  0.6026120  0.8769570  0.3201190    0.00000       Uiso       1.00
      C129          C  0.1026120  0.6230440  0.6798840    0.00000       Uiso       1.00
      C130          C  0.6026120  0.1230440  0.6798840    0.00000       Uiso       1.00
      C131          C  0.8973879  0.3769570  0.6798840    0.00000       Uiso       1.00
      C132          C  0.3973880  0.8769570  0.6798840    0.00000       Uiso       1.00
      H133          H  0.5929030  0.8882720  0.8192830    0.00000       Uiso       1.00
      H134          H  0.0929030  0.3882710  0.8192830    0.00000       Uiso       1.00
      H135          H  0.4070970  0.1117290  0.8192830    0.00000       Uiso       1.00
      H136          H  0.9070970  0.6117300  0.8192830    0.00000       Uiso       1.00
      H137          H  0.4070970  0.8882720  0.1807200    0.00000       Uiso       1.00
      H138          H  0.9070970  0.3882710  0.1807200    0.00000       Uiso       1.00
      H139          H  0.5929030  0.1117290  0.1807200    0.00000       Uiso       1.00
      H140          H  0.0929030  0.6117300  0.1807200    0.00000       Uiso       1.00
      H141          H  0.4070970  0.1117290  0.1807200    0.00000       Uiso       1.00
      H142          H  0.9070970  0.6117300  0.1807200    0.00000       Uiso       1.00
      H143          H  0.5929030  0.8882720  0.1807200    0.00000       Uiso       1.00
      H144          H  0.0929030  0.3882710  0.1807200    0.00000       Uiso       1.00
      H145          H  0.5929030  0.1117290  0.8192830    0.00000       Uiso       1.00
      H146          H  0.0929030  0.6117300  0.8192830    0.00000       Uiso       1.00
      H147          H  0.4070970  0.8882720  0.8192830    0.00000       Uiso       1.00
      H148          H  0.9070970  0.3882710  0.8192830    0.00000       Uiso       1.00
      C149          C  0.6278490  0.8474320  0.6795630    0.00000       Uiso       1.00
      C150          C  0.1278490  0.3474310  0.6795630    0.00000       Uiso       1.00
      C151          C  0.3721510  0.1525690  0.6795630    0.00000       Uiso       1.00
      C152          C  0.8721510  0.6525700  0.6795630    0.00000       Uiso       1.00
      C153          C  0.3721510  0.8474320  0.3204400    0.00000       Uiso       1.00
      C154          C  0.8721510  0.3474310  0.3204400    0.00000       Uiso       1.00
      C155          C  0.6278490  0.1525690  0.3204400    0.00000       Uiso       1.00
      C156          C  0.1278490  0.6525700  0.3204400    0.00000       Uiso       1.00
      C157          C  0.3721510  0.1525690  0.3204400    0.00000       Uiso       1.00
      C158          C  0.8721510  0.6525700  0.3204400    0.00000       Uiso       1.00
      C159          C  0.6278490  0.8474320  0.3204400    0.00000       Uiso       1.00
      C160          C  0.1278490  0.3474310  0.3204400    0.00000       Uiso       1.00
      C161          C  0.6278490  0.1525690  0.6795630    0.00000       Uiso       1.00
      C162          C  0.1278490  0.6525700  0.6795630    0.00000       Uiso       1.00
      C163          C  0.3721510  0.8474320  0.6795630    0.00000       Uiso       1.00
      C164          C  0.8721510  0.3474310  0.6795630    0.00000       Uiso       1.00
      H165          H  0.6376550  0.8358270  0.8178660    0.00000       Uiso       1.00
      H166          H  0.1376550  0.3358270  0.8178660    0.00000       Uiso       1.00
      H167          H  0.3623450  0.1641740  0.8178660    0.00000       Uiso       1.00
      H168          H  0.8623450  0.6641740  0.8178660    0.00000       Uiso       1.00
      H169          H  0.3623450  0.8358270  0.1821370    0.00000       Uiso       1.00
      H170          H  0.8623450  0.3358270  0.1821370    0.00000       Uiso       1.00
      H171          H  0.6376550  0.1641740  0.1821370    0.00000       Uiso       1.00
      H172          H  0.1376550  0.6641740  0.1821370    0.00000       Uiso       1.00
      H173          H  0.3623450  0.1641740  0.1821370    0.00000       Uiso       1.00
      H174          H  0.8623450  0.6641740  0.1821370    0.00000       Uiso       1.00
      H175          H  0.6376550  0.8358270  0.1821370    0.00000       Uiso       1.00
      H176          H  0.1376550  0.3358270  0.1821370    0.00000       Uiso       1.00
      H177          H  0.6376550  0.1641740  0.8178660    0.00000       Uiso       1.00
      H178          H  0.1376550  0.6641740  0.8178660    0.00000       Uiso       1.00
      H179          H  0.3623450  0.8358270  0.8178660    0.00000       Uiso       1.00
      H180          H  0.8623450  0.3358270  0.8178660    0.00000       Uiso       1.00
      C181          C  0.6405810  0.8327690  0.5000010    0.00000       Uiso       1.00
      C182          C  0.1405810  0.3327680  0.5000010    0.00000       Uiso       1.00
      C183          C  0.3594190  0.1672320  0.5000010    0.00000       Uiso       1.00
      C184          C  0.8594189  0.6672330  0.5000010    0.00000       Uiso       1.00
      C185          C  0.3594190  0.8327690  0.5000010    0.00000       Uiso       1.00
      C186          C  0.8594189  0.3327680  0.5000010    0.00000       Uiso       1.00
      C187          C  0.6405810  0.1672320  0.5000010    0.00000       Uiso       1.00
      C188          C  0.1405810  0.6672330  0.5000010    0.00000       Uiso       1.00
      H189          H  0.7335240  0.3217190  0.5000010    0.00000       Uiso       1.00
      H190          H  0.8107410  0.2300800  0.5000010    0.00000       Uiso       1.00
      H191          H  0.7063330  0.1574240  0.5000010    0.00000       Uiso       1.00
      H192          H  0.2335240  0.8217190  0.5000010    0.00000       Uiso       1.00
      H193          H  0.3107410  0.7300800  0.5000010    0.00000       Uiso       1.00
      H194          H  0.2063330  0.6574250  0.5000010    0.00000       Uiso       1.00
      H195          H  0.2664760  0.6782820  0.5000010    0.00000       Uiso       1.00
      H196          H  0.1892590  0.7699210  0.5000010    0.00000       Uiso       1.00
      H197          H  0.2936670  0.8425770  0.5000010    0.00000       Uiso       1.00
      H198          H  0.7664760  0.1782820  0.5000010    0.00000       Uiso       1.00
      H199          H  0.6892590  0.2699210  0.5000010    0.00000       Uiso       1.00
      H200          H  0.7936670  0.3425770  0.5000010    0.00000       Uiso       1.00
      H201          H  0.2664760  0.3217190  0.5000010    0.00000       Uiso       1.00
      H202          H  0.1892590  0.2300800  0.5000010    0.00000       Uiso       1.00
      H203          H  0.2936670  0.1574240  0.5000010    0.00000       Uiso       1.00
      H204          H  0.7664760  0.8217190  0.5000010    0.00000       Uiso       1.00
      H205          H  0.6892590  0.7300800  0.5000010    0.00000       Uiso       1.00
      H206          H  0.7936670  0.6574250  0.5000010    0.00000       Uiso       1.00
      H207          H  0.7335240  0.6782820  0.5000010    0.00000       Uiso       1.00
      H208          H  0.8107410  0.7699210  0.5000010    0.00000       Uiso       1.00
      H209          H  0.7063330  0.8425770  0.5000010    0.00000       Uiso       1.00
      H210          H  0.2335240  0.1782820  0.5000010    0.00000       Uiso       1.00
      H211          H  0.3107410  0.2699210  0.5000010    0.00000       Uiso       1.00
      H212          H  0.2063330  0.3425770  0.5000010    0.00000       Uiso       1.00
      H213          H  0.0000000  0.4621450  0.5000010    0.00000       Uiso       1.00
      H214          H  0.5000000  0.9621450  0.5000010    0.00000       Uiso       1.00
      H215          H  0.0000000  0.5378560  0.5000010    0.00000       Uiso       1.00
      H216          H  0.5000000  0.0378560  0.5000010    0.00000       Uiso       1.00
