data_HAT-COF
_audit_creation_date              0000-00-00
_audit_creation_method            'LanYouShi'
_symmetry_space_group_name_H-M    'P1'
_cell_length_a                    25.5835991
_cell_length_b                    25.5835991
_cell_length_c                    4.2164001
_cell_angle_alpha                 90.0000000
_cell_angle_beta                  90.0000000
_cell_angle_gamma                 120.0000000
loop_
_atom_site_label
_atom_site_type_symbol
_atom_site_fract_x
_atom_site_fract_y
_atom_site_fract_z
_atom_site_U_iso_or_equiv
_atom_site_adp_type
_atom_site_occupancy
        C1          C  0.3895120  0.6687530 -0.0267550    0.00000       Uiso       1.00
        C2          C  0.3312470  0.7207580 -0.0267550    0.00000       Uiso       1.00
        C3          C  0.2792410  0.6104880 -0.0267550    0.00000       Uiso       1.00
        C4          C  0.3873840  0.7228630 -0.0247600    0.00000       Uiso       1.00
        C5          C  0.2771370  0.6645210 -0.0247600    0.00000       Uiso       1.00
        C6          C  0.3354790  0.6126160 -0.0247600    0.00000       Uiso       1.00
        N7          N  0.3350740  0.5594450 -0.0149380    0.00000       Uiso       1.00
        N8          N  0.4405550  0.7756290 -0.0149380    0.00000       Uiso       1.00
        N9          N  0.2243710  0.6649260 -0.0149380    0.00000       Uiso       1.00
       N10          N  0.2286230  0.5554080 -0.0269100    0.00000       Uiso       1.00
       N11          N  0.4445910  0.6732150 -0.0269100    0.00000       Uiso       1.00
       N12          N  0.3267850  0.7713770 -0.0269100    0.00000       Uiso       1.00
       C13          C  0.7761250  0.6647350 -0.0317530    0.00000       Uiso       1.00
       C14          C  0.3352650  0.1113890 -0.0317530    0.00000       Uiso       1.00
       C15          C  0.8886099  0.2238750 -0.0317530    0.00000       Uiso       1.00
       C16          C  0.8526980  0.6342990 -0.0985810    0.00000       Uiso       1.00
       C17          C  0.3657010  0.2183990 -0.0985810    0.00000       Uiso       1.00
       C18          C  0.7816010  0.1473020 -0.0985810    0.00000       Uiso       1.00
       C19          C  0.8194040  0.7157940  0.1393840    0.00000       Uiso       1.00
       C20          C  0.2842060  0.1036100  0.1393840    0.00000       Uiso       1.00
       C21          C  0.8963890  0.1805960  0.1393840    0.00000       Uiso       1.00
       C22          C  0.7936000  0.6237090 -0.1462310    0.00000       Uiso       1.00
       C23          C  0.3762900  0.1698910 -0.1462310    0.00000       Uiso       1.00
       C24          C  0.8301090  0.2064000 -0.1462310    0.00000       Uiso       1.00
       H25          H  0.8641870  0.6041750 -0.1878470    0.00000       Uiso       1.00
       H26          H  0.3958250  0.2600120 -0.1878470    0.00000       Uiso       1.00
       H27          H  0.7399881  0.1358130 -0.1878470    0.00000       Uiso       1.00
       H28          H  0.8084330  0.7460650  0.2318010    0.00000       Uiso       1.00
       H29          H  0.2539340  0.0623680  0.2318010    0.00000       Uiso       1.00
       H30          H  0.9376320  0.1915670  0.2318010    0.00000       Uiso       1.00
       H31          H  0.7635690  0.5859590 -0.2687690    0.00000       Uiso       1.00
       H32          H  0.4140410  0.1776100 -0.2687690    0.00000       Uiso       1.00
       H33          H  0.8223900  0.2364310 -0.2687690    0.00000       Uiso       1.00
       C34          C  0.3134660  0.2097180  0.0625370    0.00000       Uiso       1.00
       C35          C  0.7902820  0.1037480  0.0625370    0.00000       Uiso       1.00
       C36          C  0.8962520  0.6865340  0.0625370    0.00000       Uiso       1.00
       C37          C  0.2733260  0.1517540  0.1846630    0.00000       Uiso       1.00
       C38          C  0.8482459  0.1215710  0.1846630    0.00000       Uiso       1.00
       C39          C  0.8784280  0.7266740  0.1846630    0.00000       Uiso       1.00
       H40          H  0.9083450  0.7644690  0.3075150    0.00000       Uiso       1.00
       H41          H  0.2355310  0.1438750  0.3075150    0.00000       Uiso       1.00
       H42          H  0.8561240  0.0916550  0.3075150    0.00000       Uiso       1.00
       C43          C  0.2846650  0.5035470 -0.0077170    0.00000       Uiso       1.00
       C44          C  0.4964530  0.7811180 -0.0077170    0.00000       Uiso       1.00
       C45          C  0.2188820  0.7153350 -0.0077170    0.00000       Uiso       1.00
       C46          C  0.2273820  0.5014500 -0.0204020    0.00000       Uiso       1.00
       C47          C  0.4985490  0.7259321 -0.0204020    0.00000       Uiso       1.00
       C48          C  0.2740680  0.7726170 -0.0204020    0.00000       Uiso       1.00
       C49          C  0.2974610  0.4554400  0.0080770    0.00000       Uiso       1.00
       C50          C  0.5445600  0.8420210  0.0080770    0.00000       Uiso       1.00
       C51          C  0.1579790  0.7025390  0.0080770    0.00000       Uiso       1.00
       C52          C  0.3488840  0.4622100  0.1748310    0.00000       Uiso       1.00
       C53          C  0.5377900  0.8866740  0.1748310    0.00000       Uiso       1.00
       C54          C  0.1133260  0.6511160  0.1748310    0.00000       Uiso       1.00
       C55          C  0.3632190  0.4156460  0.1861920    0.00000       Uiso       1.00
       C56          C  0.5843540  0.9475731  0.1861920    0.00000       Uiso       1.00
       C57          C  0.0524270  0.6367810  0.1861920    0.00000       Uiso       1.00
       C58          C  0.3257710  0.3599470  0.0372010    0.00000       Uiso       1.00
       C59          C  0.6400530  0.9658240  0.0372010    0.00000       Uiso       1.00
       C60          C  0.0341760  0.6742290  0.0372010    0.00000       Uiso       1.00
       C61          C  0.2749620  0.3525530 -0.1314530    0.00000       Uiso       1.00
       C62          C  0.6474470  0.9224090 -0.1314530    0.00000       Uiso       1.00
       C63          C  0.0775910  0.7250380 -0.1314530    0.00000       Uiso       1.00
       C64          C  0.2617280  0.3995460 -0.1462210    0.00000       Uiso       1.00
       C65          C  0.6004540  0.8621820 -0.1462210    0.00000       Uiso       1.00
       C66          C  0.1378180  0.7382720 -0.1462210    0.00000       Uiso       1.00
       H67          H  0.3766400  0.5016510  0.2922180    0.00000       Uiso       1.00
       H68          H  0.4983490  0.8749881  0.2922180    0.00000       Uiso       1.00
       H69          H  0.1250110  0.6233600  0.2922180    0.00000       Uiso       1.00
       H70          H  0.4005790  0.4220030  0.3073110    0.00000       Uiso       1.00
       H71          H  0.5779970  0.9785760  0.3073110    0.00000       Uiso       1.00
       H72          H  0.0214240  0.5994200  0.3073110    0.00000       Uiso       1.00
       H73          H  0.2477370  0.3130660 -0.2483160    0.00000       Uiso       1.00
       H74          H  0.6869340  0.9346710 -0.2483160    0.00000       Uiso       1.00
       H75          H  0.0653290  0.7522631 -0.2483160    0.00000       Uiso       1.00
       H76          H  0.2251100  0.3920360 -0.2720170    0.00000       Uiso       1.00
       H77          H  0.6079640  0.8330740 -0.2720170    0.00000       Uiso       1.00
       H78          H  0.1669260  0.7748890 -0.2720170    0.00000       Uiso       1.00
       C79          C  0.1679820  0.4506960 -0.0166660    0.00000       Uiso       1.00
       C80          C  0.5493040  0.7172860 -0.0166660    0.00000       Uiso       1.00
       C81          C  0.2827140  0.8320181 -0.0166660    0.00000       Uiso       1.00
       C82          C  0.1528140  0.3988030  0.1659370    0.00000       Uiso       1.00
       C83          C  0.6011970  0.7540110  0.1659370    0.00000       Uiso       1.00
       C84          C  0.2459890  0.8471861  0.1659370    0.00000       Uiso       1.00
       C85          C  0.0940750  0.3488910  0.1737340    0.00000       Uiso       1.00
       C86          C  0.6511090  0.7451840  0.1737340    0.00000       Uiso       1.00
       C87          C  0.2548150  0.9059250  0.1737340    0.00000       Uiso       1.00
       C88          C  0.0473390  0.3495280  0.0023610    0.00000       Uiso       1.00
       C89          C  0.6504720  0.6978110  0.0023610    0.00000       Uiso       1.00
       C90          C  0.3021890  0.9526610  0.0023610    0.00000       Uiso       1.00
       C91          C  0.0605910  0.4011460 -0.1778780    0.00000       Uiso       1.00
       C92          C  0.5988540  0.6594450 -0.1778780    0.00000       Uiso       1.00
       C93          C  0.3405550  0.9394091 -0.1778780    0.00000       Uiso       1.00
       C94          C  0.1200440  0.4507100 -0.1876340    0.00000       Uiso       1.00
       C95          C  0.5492900  0.6693340 -0.1876340    0.00000       Uiso       1.00
       C96          C  0.3306660  0.8799559 -0.1876340    0.00000       Uiso       1.00
       H97          H  0.1847280  0.3968500  0.2969820    0.00000       Uiso       1.00
       H98          H  0.6031500  0.7878780  0.2969820    0.00000       Uiso       1.00
       H99          H  0.2121220  0.8152720  0.2969820    0.00000       Uiso       1.00
      H100          H  0.0853200  0.3120430  0.3079630    0.00000       Uiso       1.00
      H101          H  0.6879560  0.7732770  0.3079630    0.00000       Uiso       1.00
      H102          H  0.2267230  0.9146801  0.3079630    0.00000       Uiso       1.00
      H103          H  0.0274400  0.4027250 -0.3047770    0.00000       Uiso       1.00
      H104          H  0.5972740  0.6247140 -0.3047770    0.00000       Uiso       1.00
      H105          H  0.3752860  0.9725600 -0.3047770    0.00000       Uiso       1.00
      H106          H  0.1282950  0.4872350 -0.3239340    0.00000       Uiso       1.00
      H107          H  0.5127650  0.6410600 -0.3239340    0.00000       Uiso       1.00
      H108          H  0.3589400  0.8717049 -0.3239340    0.00000       Uiso       1.00
      N109          N  0.3394400  0.3152420  0.0539500    0.00000       Uiso       1.00
      N110          N  0.6847569  0.0241970  0.0539500    0.00000       Uiso       1.00
      N111          N  0.9758030  0.6605600  0.0539500    0.00000       Uiso       1.00
      C112          C  0.2990450  0.2558250  0.0937160    0.00000       Uiso       1.00
      C113          C  0.7441750  0.0432200  0.0937160    0.00000       Uiso       1.00
      C114          C  0.9567800  0.7009550  0.0937160    0.00000       Uiso       1.00
      H115          H  0.2552920  0.2435600  0.1476230    0.00000       Uiso       1.00
      H116          H  0.7564399  0.0117320  0.1476230    0.00000       Uiso       1.00
      H117          H  0.9882680  0.7447079  0.1476230    0.00000       Uiso       1.00
      N118          N  0.9928980  0.2989000  0.0265190    0.00000       Uiso       1.00
      N119          N  0.7011000  0.6939980  0.0265190    0.00000       Uiso       1.00
      N120          N  0.3060020  0.0071020  0.0265190    0.00000       Uiso       1.00
      C121          C  0.9375980  0.2822670 -0.0914080    0.00000       Uiso       1.00
      C122          C  0.7177330  0.6553310 -0.0914080    0.00000       Uiso       1.00
      C123          C  0.3446680  0.0624020 -0.0914080    0.00000       Uiso       1.00
      H124          H  0.9313500  0.3118530 -0.2270600    0.00000       Uiso       1.00
      H125          H  0.6881470  0.6194970 -0.2270600    0.00000       Uiso       1.00
      H126          H  0.3805030  0.0686500 -0.2270600    0.00000       Uiso       1.00
