data_HAT-NTBA-COF
_audit_creation_date              0000-00-00
_audit_creation_method            'LanYouShi'
_symmetry_space_group_name_H-M    'P1'
_cell_length_a                    25.8299999
_cell_length_b                    25.8299999
_cell_length_c                    4.0999999
_cell_angle_alpha                 90.0000000
_cell_angle_beta                  90.0000000
_cell_angle_gamma                 120.0000000
loop_
_atom_site_label
_atom_site_type_symbol
_atom_site_fract_x
_atom_site_fract_y
_atom_site_fract_z
_atom_site_U_iso_or_equiv
_atom_site_adp_type
_atom_site_occupancy
        H1          H  1.2838041  0.8021700  0.4977200    0.00000       Uiso       1.00
        H2          H  1.3662220  0.8556021  0.5953300    0.00000       Uiso       1.00
        H3          H  1.3332731  0.9509620  1.0847600    0.00000       Uiso       1.00
        H4          H  1.2509880  0.8987489  1.0000499    0.00000       Uiso       1.00
        H5          H  1.1457980  0.6739860  0.5639700    0.00000       Uiso       1.00
        H6          H  1.1695139  0.6171040  0.6710100    0.00000       Uiso       1.00
        H7          H  1.2955520  0.7229210  1.1331000    0.00000       Uiso       1.00
        H8          H  1.2727979  0.7806400  1.0390199    0.00000       Uiso       1.00
        H9          H  0.9315600  0.5948070  1.3248800    0.00000       Uiso       1.00
       H10          H  0.9064100  0.5120670  1.3208100    0.00000       Uiso       1.00
       H11          H  1.0244360  0.5385740  0.7270400    0.00000       Uiso       1.00
       H12          H  1.0503360  0.6210220  0.7185300    0.00000       Uiso       1.00
       H13          H  0.9333570  0.7256040  1.2653000    0.00000       Uiso       1.00
       H14          H  0.8521150  0.7013620  1.1754500    0.00000       Uiso       1.00
       H15          H  0.8307970  0.5756650  0.7032200    0.00000       Uiso       1.00
       H16          H  0.9111620  0.5981260  0.7818300    0.00000       Uiso       1.00
       H17          H  1.0838090  0.9610000  0.8938500    0.00000       Uiso       1.00
       H18          H  1.0275069  0.9867010  0.9412700    0.00000       Uiso       1.00
       H19          H  0.9253170  0.8531070  1.3367400    0.00000       Uiso       1.00
       H20          H  0.9812201  0.8255600  1.3089401    0.00000       Uiso       1.00
       H21          H  1.2036320  0.9455230  0.7986900    0.00000       Uiso       1.00
       H22          H  1.2626950  1.0244490  0.9206000    0.00000       Uiso       1.00
       H23          H  1.1664010  1.0401690  1.5393300    0.00000       Uiso       1.00
       H24          H  1.1062820  0.9601220  1.4335700    0.00000       Uiso       1.00
       H25          H  0.8793470  0.8787710  0.9994100    0.00000       Uiso       1.00
       H26          H  1.3119071  1.0940030  1.0604200    0.00000       Uiso       1.00
       H27          H  1.4086350  1.0013220  0.8707300    0.00000       Uiso       1.00
       H28          H  1.1947080  0.5706170  0.7900300    0.00000       Uiso       1.00
       H29          H  0.9955880  0.4637730  0.7471700    0.00000       Uiso       1.00
       H30          H  0.7769930  0.6720070  1.0916100    0.00000       Uiso       1.00
       H31          H  1.4635390  0.9446430  1.3638700    0.00000       Uiso       1.00
       H32          H  1.5416000  0.9853339  1.5809200    0.00000       Uiso       1.00
       H33          H  1.5668271  1.1122340  1.0930001    0.00000       Uiso       1.00
       H34          H  1.4875580  1.0717710  0.8941400    0.00000       Uiso       1.00
       H35          H  1.3785710  1.1711690  0.9602000    0.00000       Uiso       1.00
       H36          H  1.4193940  1.2554030  1.0165000    0.00000       Uiso       1.00
       H37          H  1.3106790  1.2434350  1.6636400    0.00000       Uiso       1.00
       H38          H  1.2700700  1.1595989  1.6010400    0.00000       Uiso       1.00
       H39          H  1.6015739  0.9981360  1.2822200    0.00000       Uiso       1.00
       H40          H  1.6786250  1.0231470  1.0935700    0.00000       Uiso       1.00
       H41          H  1.7134620  1.1680950  1.1912600    0.00000       Uiso       1.00
       H42          H  1.6350240  1.1426280  1.3720500    0.00000       Uiso       1.00
       H43          H  1.4593110  1.3273309  1.2640100    0.00000       Uiso       1.00
       H44          H  1.4851640  1.4072490  1.1194800    0.00000       Uiso       1.00
       H45          H  1.3415869  1.3785230  1.1798600    0.00000       Uiso       1.00
       H46          H  1.3166890  1.3000870  1.3398700    0.00000       Uiso       1.00
       H47          H  1.8445950  1.1577140  0.9067700    0.00000       Uiso       1.00
       H48          H  1.8953010  1.2370239  0.7428900    0.00000       Uiso       1.00
       H49          H  1.7747650  1.2528811  0.5523900    0.00000       Uiso       1.00
       H50          H  1.7235320  1.1726691  0.7137200    0.00000       Uiso       1.00
       H51          H  1.7219909  1.0336890  0.6427800    0.00000       Uiso       1.00
       H52          H  1.7529531  0.9806530  0.6996700    0.00000       Uiso       1.00
       H53          H  1.8475569  1.0718240  1.4394300    0.00000       Uiso       1.00
       H54          H  1.8147490  1.1224000  1.3813400    0.00000       Uiso       1.00
       H55          H  1.4871579  1.4258471  0.6576700    0.00000       Uiso       1.00
       H56          H  1.5666990  1.4787860  0.5023400    0.00000       Uiso       1.00
       H57          H  1.5518950  1.5956811  0.8272400    0.00000       Uiso       1.00
       H58          H  1.4747140  1.5431590  0.9989000    0.00000       Uiso       1.00
       H59          H  1.4336441  1.5108110  1.4167800    0.00000       Uiso       1.00
       H60          H  1.3795590  1.5398060  1.4595400    0.00000       Uiso       1.00
       H61          H  1.2936471  1.4424289  0.7153000    0.00000       Uiso       1.00
       H62          H  1.3502049  1.4160939  0.6688000    0.00000       Uiso       1.00
       H63          H  1.3503571  1.5784179  1.3542800    0.00000       Uiso       1.00
       H64          H  1.3086650  1.6190630  1.2696500    0.00000       Uiso       1.00
       H65          H  1.2027230  1.5016570  0.7305900    0.00000       Uiso       1.00
       H66          H  1.2435000  1.4593420  0.8175200    0.00000       Uiso       1.00
       H67          H  1.9294500  1.3068080  0.4149900    0.00000       Uiso       1.00
       H68          H  1.9810170  1.3894870  0.5290100    0.00000       Uiso       1.00
       H69          H  1.8689970  1.3931590  1.0465000    0.00000       Uiso       1.00
       H70          H  1.8174100  1.3113199  0.9340700    0.00000       Uiso       1.00
       H71          H  1.7700690  0.9312170  0.8435200    0.00000       Uiso       1.00
       H72          H  1.8111221  0.8878640  0.8394900    0.00000       Uiso       1.00
       H73          H  1.9260721  1.0000460  1.3603500    0.00000       Uiso       1.00
       H74          H  1.8874660  1.0442650  1.3562599    0.00000       Uiso       1.00
       H75          H  1.6354001  1.5273042  0.3907100    0.00000       Uiso       1.00
       H76          H  1.7168519  1.5659860  0.5268500    0.00000       Uiso       1.00
       H77          H  1.6999370  1.6633190  1.1281101    0.00000       Uiso       1.00
       H78          H  1.6182660  1.6244211  1.0042900    0.00000       Uiso       1.00
       C79          C  1.0708940  0.7347390  0.8854500    0.00000       Uiso       1.00
       C80          C  1.1177690  0.7603260  0.8232500    0.00000       Uiso       1.00
       C81          C  1.1401340  0.8073660  0.8473300    0.00000       Uiso       1.00
       C82          C  1.1157110  0.8293490  0.9211600    0.00000       Uiso       1.00
       C83          C  1.0694240  0.8042890  0.9884201    0.00000       Uiso       1.00
       C84          C  1.0469130  0.7564450  0.9734800    0.00000       Uiso       1.00
       C85          C  1.1164430  0.8975580  1.0402300    0.00000       Uiso       1.00
       C86          C  1.0692450  0.8731250  1.0734900    0.00000       Uiso       1.00
       C87          C  0.9799990  0.6846850  1.0221500    0.00000       Uiso       1.00
       C88          C  1.0054570  0.6632740  0.9737200    0.00000       Uiso       1.00
       C89          C  1.1886460  0.7635910  0.7623800    0.00000       Uiso       1.00
       C90          C  1.2108730  0.8111350  0.7629600    0.00000       Uiso       1.00
       C91          C  1.0387640  0.8910080  1.1101100    0.00000       Uiso       1.00
       C92          C  1.1483850  0.9453270  1.0955900    0.00000       Uiso       1.00
       C93          C  0.9307860  0.6642290  1.0383300    0.00000       Uiso       1.00
       C94          C  0.9916790  0.6156010  1.0044100    0.00000       Uiso       1.00
       C95          C  1.2589370  0.8440720  0.7502400    0.00000       Uiso       1.00
       C96          C  1.2078370  0.7337640  0.7773500    0.00000       Uiso       1.00
       C97          C  1.2937920  0.8347860  0.6249200    0.00000       Uiso       1.00
       C98          C  1.3405271  0.8649350  0.6820000    0.00000       Uiso       1.00
       C99          C  1.3558151  0.9067751  0.8513600    0.00000       Uiso       1.00
      C100          C  1.3224790  0.9184570  0.9517600    0.00000       Uiso       1.00
      C101          C  1.2757270  0.8890330  0.8986500    0.00000       Uiso       1.00
      C102          C  1.1797880  0.6858140  0.6805600    0.00000       Uiso       1.00
      C103          C  1.1928860  0.6533180  0.7471400    0.00000       Uiso       1.00
      C104          C  1.2346300  0.6657940  0.9098700    0.00000       Uiso       1.00
      C105          C  1.2630130  0.7125640  1.0015900    0.00000       Uiso       1.00
      C106          C  1.2510020  0.7459210  0.9353900    0.00000       Uiso       1.00
      C107          C  0.9519160  0.5830840  1.1865300    0.00000       Uiso       1.00
      C108          C  0.9380670  0.5363500  1.1880100    0.00000       Uiso       1.00
      C109          C  0.9627040  0.5188460  1.0194401    0.00000       Uiso       1.00
      C110          C  1.0037900  0.5506640  0.8594110    0.00000       Uiso       1.00
      C111          C  1.0185680  0.5975700  0.8545730    0.00000       Uiso       1.00
      C112          C  0.9108370  0.6914720  1.1512250    0.00000       Uiso       1.00
      C113          C  0.8648950  0.6781660  1.0936900    0.00000       Uiso       1.00
      C114          C  0.8352770  0.6365620  0.9301560    0.00000       Uiso       1.00
      C115          C  0.8534380  0.6082330  0.8331620    0.00000       Uiso       1.00
      C116          C  0.8991080  0.6204300  0.8896410    0.00000       Uiso       1.00
      C117          C  1.0502350  0.9370520  1.0064991    0.00000       Uiso       1.00
      C118          C  1.0179090  0.9514470  1.0251141    0.00000       Uiso       1.00
      C119          C  0.9727900  0.9218880  1.1422020    0.00000       Uiso       1.00
      C120          C  0.9605570  0.8767370  1.2435091    0.00000       Uiso       1.00
      C121          C  0.9921860  0.8613920  1.2297560    0.00000       Uiso       1.00
      C122          C  1.1945060  0.9659850  0.9608870    0.00000       Uiso       1.00
      C123          C  1.2282560  1.0108240  1.0327950    0.00000       Uiso       1.00
      C124          C  1.2189690  1.0385370  1.2398750    0.00000       Uiso       1.00
      C125          C  1.1741010  1.0191300  1.3734111    0.00000       Uiso       1.00
      C126          C  1.1396110  0.9742119  1.3065720    0.00000       Uiso       1.00
      C127          C  0.8975121  0.9152321  1.0831890    0.00000       Uiso       1.00
      C128          C  1.2950950  1.1085390  1.2120680    0.00000       Uiso       1.00
      C129          C  1.4240370  0.9802929  0.9523110    0.00000       Uiso       1.00
      C130          C  1.2283540  0.5895090  0.9158450    0.00000       Uiso       1.00
      C131          C  0.9607510  0.4474140  0.8577780    0.00000       Uiso       1.00
      C132          C  0.7638970  0.6407460  0.9400700    0.00000       Uiso       1.00
      C133          C  1.3206480  1.1582930  1.2722660    0.00000       Uiso       1.00
      C134          C  1.4693010  1.0046120  1.1047590    0.00000       Uiso       1.00
      C135          C  1.4856610  0.9818969  1.3068880    0.00000       Uiso       1.00
      C136          C  1.5294870  1.0053880  1.4408090    0.00000       Uiso       1.00
      C137          C  1.5615860  1.0522470  1.3549720    0.00000       Uiso       1.00
      C138          C  1.5432520  1.0764440  1.1773421    0.00000       Uiso       1.00
      C139          C  1.4988379  1.0526659  1.0513810    0.00000       Uiso       1.00
      C140          C  1.3639230  1.1866500  1.1227480    0.00000       Uiso       1.00
      C141          C  1.3879480  1.2343661  1.1611220    0.00000       Uiso       1.00
      C142          C  1.3688170  1.2570710  1.3473530    0.00000       Uiso       1.00
      C143          C  1.3266610  1.2277830  1.5149370    0.00000       Uiso       1.00
      C144          C  1.3032950  1.1802140  1.4734670    0.00000       Uiso       1.00
      C145          C  1.3857000  1.3061579  1.3146811    0.00000       Uiso       1.00
      C146          C  1.6108249  1.0680749  1.3477650    0.00000       Uiso       1.00
      C147          C  1.6264560  1.0359350  1.2778670    0.00000       Uiso       1.00
      C148          C  1.6703370  1.0505300  1.1549290    0.00000       Uiso       1.00
      C149          C  1.7028199  1.0982320  1.1058390    0.00000       Uiso       1.00
      C150          C  1.6887730  1.1302760  1.2004330    0.00000       Uiso       1.00
      C151          C  1.6447530  1.1159580  1.3208610    0.00000       Uiso       1.00
      C152          C  1.4332310  1.3386590  1.2491380    0.00000       Uiso       1.00
      C153          C  1.4474210  1.3837169  1.1517600    0.00000       Uiso       1.00
      C154          C  1.4155281  1.3998770  1.1105180    0.00000       Uiso       1.00
      C155          C  1.3685830  1.3683950  1.1931390    0.00000       Uiso       1.00
      C156          C  1.3541840  1.3236140  1.2962739    0.00000       Uiso       1.00
      C157          C  1.4748440  1.4786659  0.8719940    0.00000       Uiso       1.00
      C158          C  1.3964649  1.4621590  1.0347050    0.00000       Uiso       1.00
      C159          C  1.7662640  1.0817471  1.0083650    0.00000       Uiso       1.00
      C160          C  1.7791030  1.1589060  0.8496540    0.00000       Uiso       1.00
      C161          C  1.8279920  1.1778750  0.8323440    0.00000       Uiso       1.00
      C162          C  1.8573600  1.2225840  0.7205320    0.00000       Uiso       1.00
      C163          C  1.8396740  1.2525491  0.6359330    0.00000       Uiso       1.00
      C164          C  1.7904310  1.2315440  0.6195110    0.00000       Uiso       1.00
      C165          C  1.7614440  1.1866480  0.7277420    0.00000       Uiso       1.00
      C166          C  1.7491699  1.0410939  0.8224860    0.00000       Uiso       1.00
      C167          C  1.7666500  1.0111680  0.8580080    0.00000       Uiso       1.00
      C168          C  1.8033800  1.0209200  1.0753540    0.00000       Uiso       1.00
      C169          C  1.8200080  1.0621570  1.2603559    0.00000       Uiso       1.00
      C170          C  1.8016130  1.0911700  1.2300400    0.00000       Uiso       1.00
      C171          C  1.5017869  1.4632710  0.7077390    0.00000       Uiso       1.00
      C172          C  1.5465140  1.4940370  0.6013020    0.00000       Uiso       1.00
      C173          C  1.5682259  1.5427068  0.6633300    0.00000       Uiso       1.00
      C174          C  1.5384250  1.5583129  0.7823570    0.00000       Uiso       1.00
      C175          C  1.4940391  1.5275130  0.8924200    0.00000       Uiso       1.00
      C176          C  1.4030700  1.4965470  1.2576100    0.00000       Uiso       1.00
      C177          C  1.3717290  1.5123280  1.2829920    0.00000       Uiso       1.00
      C178          C  1.3309470  1.4940701  1.0915370    0.00000       Uiso       1.00
      C179          C  1.3236250  1.4576000  0.8786700    0.00000       Uiso       1.00
      C180          C  1.3558780  1.4429671  0.8465420    0.00000       Uiso       1.00
      C181          C  1.3014480  1.5148259  1.0906650    0.00000       Uiso       1.00
      C182          C  1.6185380  1.5720470  0.6812530    0.00000       Uiso       1.00
      C183          C  1.8685240  1.3022020  0.6555410    0.00000       Uiso       1.00
      C184          C  1.8247410  0.9921800  1.0982651    0.00000       Uiso       1.00
      C185          C  1.3172420  1.5599829  1.2230541    0.00000       Uiso       1.00
      C186          C  1.2937720  1.5837538  1.1687310    0.00000       Uiso       1.00
      C187          C  1.2524160  1.5641890  0.9877540    0.00000       Uiso       1.00
      C188          C  1.2349440  1.5184700  0.8730710    0.00000       Uiso       1.00
      C189          C  1.2580800  1.4941990  0.9248180    0.00000       Uiso       1.00
      C190          C  1.9158819  1.3260790  0.5490750    0.00000       Uiso       1.00
      C191          C  1.9449260  1.3725350  0.6181520    0.00000       Uiso       1.00
      C192          C  1.9293340  1.3983550  0.7942510    0.00000       Uiso       1.00
      C193          C  1.8827430  1.3749300  0.9024920    0.00000       Uiso       1.00
      C194          C  1.8528590  1.3288230  0.8330280    0.00000       Uiso       1.00
      C195          C  1.8043489  0.9467770  0.9603910    0.00000       Uiso       1.00
      C196          C  1.8276628  0.9220690  0.9584810    0.00000       Uiso       1.00
      C197          C  1.8721991  0.9403300  1.0959020    0.00000       Uiso       1.00
      C198          C  1.8917140  0.9843280  1.2437600    0.00000       Uiso       1.00
      C199          C  1.8691208  1.0095030  1.2463020    0.00000       Uiso       1.00
      C200          C  1.6490380  1.5577710  0.5493950    0.00000       Uiso       1.00
      C201          C  1.6954880  1.5795799  0.6310660    0.00000       Uiso       1.00
      C202          C  1.7155030  1.6179760  0.8409740    0.00000       Uiso       1.00
      C203          C  1.6862280  1.6338760  0.9599880    0.00000       Uiso       1.00
      C204          C  1.6396580  1.6123010  0.8821880    0.00000       Uiso       1.00
      N205          N  1.1397940  0.8751900  0.9456260    0.00000       Uiso       1.00
      N206          N  1.0453640  0.8249041  1.0665920    0.00000       Uiso       1.00
      N207          N  1.0018330  0.7326610  1.0410920    0.00000       Uiso       1.00
      N208          N  1.0515090  0.6888530  0.8841790    0.00000       Uiso       1.00
      N209          N  1.1407310  0.7378870  0.7686790    0.00000       Uiso       1.00
      N210          N  1.1857181  0.8333530  0.8125580    0.00000       Uiso       1.00
      N211          N  0.9414150  0.9383079  1.1542211    0.00000       Uiso       1.00
      N212          N  1.2525001  1.0846680  1.3144571    0.00000       Uiso       1.00
      N213          N  1.4029779  0.9351690  0.9305160    0.00000       Uiso       1.00
      N214          N  1.2488780  0.6335500  0.9851409    0.00000       Uiso       1.00
      N215          N  0.9443890  0.4704430  1.0068910    0.00000       Uiso       1.00
      N216          N  0.7887380  0.6222830  0.8556270    0.00000       Uiso       1.00
      N217          N  1.4294950  1.4465671  1.0026250    0.00000       Uiso       1.00
      N218          N  1.7485830  1.1129910  0.9777140    0.00000       Uiso       1.00
