data_4PE-TT
_audit_creation_date              0000-00-00
_audit_creation_method            'LanYouShi'
_symmetry_space_group_name_H-M    'P1'
_cell_length_a                    41.1994019
_cell_length_b                    41.1994019
_cell_length_c                    4.5827999
_cell_angle_alpha                 90.0000000
_cell_angle_beta                  90.0000000
_cell_angle_gamma                 120.0000000
loop_
_atom_site_label
_atom_site_type_symbol
_atom_site_fract_x
_atom_site_fract_y
_atom_site_fract_z
_atom_site_U_iso_or_equiv
_atom_site_adp_type
_atom_site_occupancy
        C1          C  0.4828300  0.4840500  0.5102930    0.00000       Uiso       1.00
        C2          C  0.4476900  0.4846300  0.5222730    0.00000       Uiso       1.00
        C3          C  0.4186300  0.4614100  0.3339620    0.00000       Uiso       1.00
        C4          C  0.3859900  0.4625700  0.3262620    0.00000       Uiso       1.00
        C5          C  0.3813800  0.4868500  0.5120830    0.00000       Uiso       1.00
        C6          C  0.4098400  0.5092000  0.7090850    0.00000       Uiso       1.00
        C7          C  0.4424000  0.5079700  0.7126450    0.00000       Uiso       1.00
        H8          H  0.4654000  0.5262100  0.8574060    0.00000       Uiso       1.00
        C9          C  0.4776400  0.4463400  0.5026630    0.00000       Uiso       1.00
       C10          C  0.4488400  0.4176200  0.6647740    0.00000       Uiso       1.00
       C11          C  0.4435300  0.3819500  0.6640040    0.00000       Uiso       1.00
       C12          C  0.4670200  0.3739600  0.4975130    0.00000       Uiso       1.00
       C13          C  0.4948500  0.4021400  0.3247420    0.00000       Uiso       1.00
       C14          C  0.5001600  0.4375600  0.3314920    0.00000       Uiso       1.00
       N15          N  0.3501000  0.4902600  0.5077230    0.00000       Uiso       1.00
       C16          C  0.3177900  0.4621000  0.4533430    0.00000       Uiso       1.00
       N17          N  0.4616900  0.3384400  0.5013430    0.00000       Uiso       1.00
       C18          C  0.4897500  0.3336700  0.4586430    0.00000       Uiso       1.00
       C19          C  0.4848500  0.2974100  0.4456030    0.00000       Uiso       1.00
       H20          H  0.4227900  0.4430100  0.1853010    0.00000       Uiso       1.00
       H21          H  0.3644100  0.4463500  0.1634510    0.00000       Uiso       1.00
       H22          H  0.4050700  0.5273400  0.8555860    0.00000       Uiso       1.00
       H23          H  0.4303400  0.4238600  0.7939850    0.00000       Uiso       1.00
       H24          H  0.4214700  0.3593800  0.7919650    0.00000       Uiso       1.00
       H25          H  0.5111100  0.3952300  0.1736910    0.00000       Uiso       1.00
       H26          H  0.5222400  0.4596100  0.2008010    0.00000       Uiso       1.00
       H27          H  0.3131900  0.4334300  0.4271730    0.00000       Uiso       1.00
       H28          H  0.5187500  0.3573900  0.4424630    0.00000       Uiso       1.00
       C29          C  0.5119500  0.2872700  0.4434330    0.00000       Uiso       1.00
       C30          C  0.4956500  0.2485000  0.4438530    0.00000       Uiso       1.00
       C31          C  0.4563900  0.2297700  0.4421530    0.00000       Uiso       1.00
       S32          S  0.4398300  0.2601800  0.4451330    0.00000       Uiso       1.00
       C33          C  0.2863500  0.4670400  0.4427430    0.00000       Uiso       1.00
       C34          C  0.2490700  0.4400800  0.4388130    0.00000       Uiso       1.00
       S35          S  0.2941700  0.5120900  0.4501230    0.00000       Uiso       1.00
       H36          H  0.5417300  0.3077500  0.4450030    0.00000       Uiso       1.00
       H37          H  0.2393500  0.4102300  0.4371630    0.00000       Uiso       1.00
       C38          C  0.5159500  0.9987800  0.5102930    0.00000       Uiso       1.00
       C39          C  0.5153700  0.9630600  0.5222730    0.00000       Uiso       1.00
       C40          C  0.5385900  0.9572200  0.3339620    0.00000       Uiso       1.00
       C41          C  0.5374300  0.9234200  0.3262620    0.00000       Uiso       1.00
       C42          C  0.5131500  0.8945300  0.5120830    0.00000       Uiso       1.00
       C43          C  0.4908000  0.9006400  0.7090850    0.00000       Uiso       1.00
       C44          C  0.4920300  0.9344300  0.7126450    0.00000       Uiso       1.00
       H45          H  0.4737900  0.9391900  0.8574060    0.00000       Uiso       1.00
       C46          C  0.5536600  0.0313000  0.5026630    0.00000       Uiso       1.00
       C47          C  0.5823800  0.0312200  0.6647740    0.00000       Uiso       1.00
       C48          C  0.6180500  0.0615800  0.6640040    0.00000       Uiso       1.00
       C49          C  0.6260400  0.0930600  0.4975130    0.00000       Uiso       1.00
       C50          C  0.5978600  0.0927100  0.3247420    0.00000       Uiso       1.00
       C51          C  0.5624400  0.0626000  0.3314920    0.00000       Uiso       1.00
       N52          N  0.5097400  0.8598400  0.5077230    0.00000       Uiso       1.00
       C53          C  0.5379000  0.8556900  0.4533430    0.00000       Uiso       1.00
       N54          N  0.6615600  0.1232500  0.5013430    0.00000       Uiso       1.00
       C55          C  0.6663300  0.1560800  0.4586430    0.00000       Uiso       1.00
       C56          C  0.7025900  0.1874400  0.4456030    0.00000       Uiso       1.00
       H57          H  0.5569900  0.9797801  0.1853010    0.00000       Uiso       1.00
       H58          H  0.5536500  0.9180599  0.1634510    0.00000       Uiso       1.00
       H59          H  0.4726600  0.8777300  0.8555860    0.00000       Uiso       1.00
       H60          H  0.5761400  0.0064800  0.7939850    0.00000       Uiso       1.00
       H61          H  0.6406200  0.0620900  0.7919650    0.00000       Uiso       1.00
       H62          H  0.6047700  0.1158800  0.1736910    0.00000       Uiso       1.00
       H63          H  0.5403900  0.0626300  0.2008010    0.00000       Uiso       1.00
       H64          H  0.5665700  0.8797600  0.4271730    0.00000       Uiso       1.00
       H65          H  0.6426100  0.1613600  0.4424630    0.00000       Uiso       1.00
       C66          C  0.7127300  0.2246800  0.4434330    0.00000       Uiso       1.00
       C67          C  0.7515000  0.2471500  0.4438530    0.00000       Uiso       1.00
       C68          C  0.7702300  0.2266200  0.4421530    0.00000       Uiso       1.00
       S69          S  0.7398200  0.1796500  0.4451330    0.00000       Uiso       1.00
       C70          C  0.5329600  0.8193100  0.4427430    0.00000       Uiso       1.00
       C71          C  0.5599200  0.8089900  0.4388130    0.00000       Uiso       1.00
       S72          S  0.4879100  0.7820800  0.4501230    0.00000       Uiso       1.00
       H73          H  0.6922500  0.2339800  0.4450030    0.00000       Uiso       1.00
       H74          H  0.5897700  0.8291200  0.4371630    0.00000       Uiso       1.00
       C75          C  0.0012200  0.5171700  0.5102930    0.00000       Uiso       1.00
       C76          C  0.0369400  0.5523100  0.5222730    0.00000       Uiso       1.00
       C77          C  0.0427800  0.5813700  0.3339620    0.00000       Uiso       1.00
       C78          C  0.0765800  0.6140100  0.3262620    0.00000       Uiso       1.00
       C79          C  0.1054700  0.6186200  0.5120830    0.00000       Uiso       1.00
       C80          C  0.0993600  0.5901600  0.7090850    0.00000       Uiso       1.00
       C81          C  0.0655700  0.5576000  0.7126450    0.00000       Uiso       1.00
       H82          H  0.0608100  0.5346000  0.8574060    0.00000       Uiso       1.00
       C83          C  0.9687001  0.5223600  0.5026630    0.00000       Uiso       1.00
       C84          C  0.9687800  0.5511600  0.6647740    0.00000       Uiso       1.00
       C85          C  0.9384200  0.5564700  0.6640040    0.00000       Uiso       1.00
       C86          C  0.9069400  0.5329800  0.4975130    0.00000       Uiso       1.00
       C87          C  0.9072900  0.5051500  0.3247420    0.00000       Uiso       1.00
       C88          C  0.9374000  0.4998400  0.3314920    0.00000       Uiso       1.00
       N89          N  0.1401600  0.6499000  0.5077230    0.00000       Uiso       1.00
       C90          C  0.1443100  0.6822100  0.4533430    0.00000       Uiso       1.00
       N91          N  0.8767500  0.5383100  0.5013430    0.00000       Uiso       1.00
       C92          C  0.8439200  0.5102500  0.4586430    0.00000       Uiso       1.00
       C93          C  0.8125600  0.5151500  0.4456030    0.00000       Uiso       1.00
       H94          H  0.0202200  0.5772100  0.1853010    0.00000       Uiso       1.00
       H95          H  0.0819400  0.6355900  0.1634510    0.00000       Uiso       1.00
       H96          H  0.1222700  0.5949300  0.8555860    0.00000       Uiso       1.00
       H97          H  0.9935200  0.5696600  0.7939850    0.00000       Uiso       1.00
       H98          H  0.9379100  0.5785300  0.7919650    0.00000       Uiso       1.00
       H99          H  0.8841200  0.4888900  0.1736910    0.00000       Uiso       1.00
      H100          H  0.9373700  0.4777600  0.2008010    0.00000       Uiso       1.00
      H101          H  0.1202400  0.6868100  0.4271730    0.00000       Uiso       1.00
      H102          H  0.8386400  0.4812500  0.4424630    0.00000       Uiso       1.00
      C103          C  0.7753200  0.4880500  0.4434330    0.00000       Uiso       1.00
      C104          C  0.7528500  0.5043500  0.4438530    0.00000       Uiso       1.00
      C105          C  0.7733800  0.5436100  0.4421530    0.00000       Uiso       1.00
      S106          S  0.8203500  0.5601700  0.4451330    0.00000       Uiso       1.00
      C107          C  0.1806900  0.7136500  0.4427430    0.00000       Uiso       1.00
      C108          C  0.1910100  0.7509300  0.4388130    0.00000       Uiso       1.00
      S109          S  0.2179200  0.7058300  0.4501230    0.00000       Uiso       1.00
      H110          H  0.7660200  0.4582700  0.4450030    0.00000       Uiso       1.00
      H111          H  0.1708800  0.7606500  0.4371630    0.00000       Uiso       1.00
      C112          C  0.5171700  0.5159500  0.5102930    0.00000       Uiso       1.00
      C113          C  0.5523100  0.5153700  0.5222730    0.00000       Uiso       1.00
      C114          C  0.5813700  0.5385900  0.3339620    0.00000       Uiso       1.00
      C115          C  0.6140100  0.5374300  0.3262620    0.00000       Uiso       1.00
      C116          C  0.6186200  0.5131500  0.5120830    0.00000       Uiso       1.00
      C117          C  0.5901600  0.4908000  0.7090850    0.00000       Uiso       1.00
      C118          C  0.5576000  0.4920300  0.7126450    0.00000       Uiso       1.00
      H119          H  0.5346000  0.4737900  0.8574060    0.00000       Uiso       1.00
      C120          C  0.5223600  0.5536600  0.5026630    0.00000       Uiso       1.00
      C121          C  0.5511600  0.5823800  0.6647740    0.00000       Uiso       1.00
      C122          C  0.5564700  0.6180500  0.6640040    0.00000       Uiso       1.00
      C123          C  0.5329800  0.6260400  0.4975130    0.00000       Uiso       1.00
      C124          C  0.5051500  0.5978600  0.3247420    0.00000       Uiso       1.00
      C125          C  0.4998400  0.5624400  0.3314920    0.00000       Uiso       1.00
      N126          N  0.6499001  0.5097400  0.5077230    0.00000       Uiso       1.00
      C127          C  0.6822100  0.5379000  0.4533430    0.00000       Uiso       1.00
      N128          N  0.5383100  0.6615600  0.5013430    0.00000       Uiso       1.00
      C129          C  0.5102500  0.6663300  0.4586430    0.00000       Uiso       1.00
      C130          C  0.5151500  0.7025900  0.4456030    0.00000       Uiso       1.00
      H131          H  0.5772100  0.5569900  0.1853010    0.00000       Uiso       1.00
      H132          H  0.6355900  0.5536500  0.1634510    0.00000       Uiso       1.00
      H133          H  0.5949300  0.4726600  0.8555860    0.00000       Uiso       1.00
      H134          H  0.5696600  0.5761400  0.7939850    0.00000       Uiso       1.00
      H135          H  0.5785300  0.6406200  0.7919650    0.00000       Uiso       1.00
      H136          H  0.4888900  0.6047700  0.1736910    0.00000       Uiso       1.00
      H137          H  0.4777600  0.5403900  0.2008010    0.00000       Uiso       1.00
      H138          H  0.6868100  0.5665700  0.4271730    0.00000       Uiso       1.00
      H139          H  0.4812500  0.6426100  0.4424630    0.00000       Uiso       1.00
      C140          C  0.4880500  0.7127300  0.4434330    0.00000       Uiso       1.00
      C141          C  0.5043500  0.7515000  0.4438530    0.00000       Uiso       1.00
      C142          C  0.5436100  0.7702300  0.4421530    0.00000       Uiso       1.00
      S143          S  0.5601700  0.7398200  0.4451330    0.00000       Uiso       1.00
      C144          C  0.7136500  0.5329600  0.4427430    0.00000       Uiso       1.00
      C145          C  0.7509300  0.5599200  0.4388130    0.00000       Uiso       1.00
      S146          S  0.7058300  0.4879100  0.4501230    0.00000       Uiso       1.00
      H147          H  0.4582700  0.6922500  0.4450030    0.00000       Uiso       1.00
      H148          H  0.7606500  0.5897700  0.4371630    0.00000       Uiso       1.00
      C149          C  0.4840500  0.0012200  0.5102930    0.00000       Uiso       1.00
      C150          C  0.4846300  0.0369400  0.5222730    0.00000       Uiso       1.00
      C151          C  0.4614100  0.0427800  0.3339620    0.00000       Uiso       1.00
      C152          C  0.4625700  0.0765800  0.3262620    0.00000       Uiso       1.00
      C153          C  0.4868500  0.1054700  0.5120830    0.00000       Uiso       1.00
      C154          C  0.5092000  0.0993600  0.7090850    0.00000       Uiso       1.00
      C155          C  0.5079700  0.0655700  0.7126450    0.00000       Uiso       1.00
      H156          H  0.5262100  0.0608100  0.8574060    0.00000       Uiso       1.00
      C157          C  0.4463400  0.9687001  0.5026630    0.00000       Uiso       1.00
      C158          C  0.4176200  0.9687800  0.6647740    0.00000       Uiso       1.00
      C159          C  0.3819500  0.9384200  0.6640040    0.00000       Uiso       1.00
      C160          C  0.3739600  0.9069399  0.4975130    0.00000       Uiso       1.00
      C161          C  0.4021400  0.9072900  0.3247420    0.00000       Uiso       1.00
      C162          C  0.4375600  0.9374000  0.3314920    0.00000       Uiso       1.00
      N163          N  0.4902600  0.1401600  0.5077230    0.00000       Uiso       1.00
      C164          C  0.4621000  0.1443100  0.4533430    0.00000       Uiso       1.00
      N165          N  0.3384400  0.8767500  0.5013430    0.00000       Uiso       1.00
      C166          C  0.3336700  0.8439200  0.4586430    0.00000       Uiso       1.00
      C167          C  0.2974100  0.8125600  0.4456030    0.00000       Uiso       1.00
      H168          H  0.4430100  0.0202200  0.1853010    0.00000       Uiso       1.00
      H169          H  0.4463500  0.0819400  0.1634510    0.00000       Uiso       1.00
      H170          H  0.5273400  0.1222700  0.8555860    0.00000       Uiso       1.00
      H171          H  0.4238600  0.9935200  0.7939850    0.00000       Uiso       1.00
      H172          H  0.3593800  0.9379100  0.7919650    0.00000       Uiso       1.00
      H173          H  0.3952300  0.8841200  0.1736910    0.00000       Uiso       1.00
      H174          H  0.4596100  0.9373700  0.2008010    0.00000       Uiso       1.00
      H175          H  0.4334300  0.1202400  0.4271730    0.00000       Uiso       1.00
      H176          H  0.3573900  0.8386400  0.4424630    0.00000       Uiso       1.00
      C177          C  0.2872700  0.7753200  0.4434330    0.00000       Uiso       1.00
      C178          C  0.2485000  0.7528500  0.4438530    0.00000       Uiso       1.00
      C179          C  0.2297700  0.7733800  0.4421530    0.00000       Uiso       1.00
      S180          S  0.2601800  0.8203500  0.4451330    0.00000       Uiso       1.00
      C181          C  0.4670400  0.1806900  0.4427430    0.00000       Uiso       1.00
      C182          C  0.4400800  0.1910100  0.4388130    0.00000       Uiso       1.00
      S183          S  0.5120900  0.2179200  0.4501230    0.00000       Uiso       1.00
      H184          H  0.3077500  0.7660200  0.4450030    0.00000       Uiso       1.00
      H185          H  0.4102300  0.1708800  0.4371630    0.00000       Uiso       1.00
      C186          C  0.9987800  0.4828300  0.5102930    0.00000       Uiso       1.00
      C187          C  0.9630600  0.4476900  0.5222730    0.00000       Uiso       1.00
      C188          C  0.9572200  0.4186300  0.3339620    0.00000       Uiso       1.00
      C189          C  0.9234200  0.3859900  0.3262620    0.00000       Uiso       1.00
      C190          C  0.8945300  0.3813800  0.5120830    0.00000       Uiso       1.00
      C191          C  0.9006400  0.4098400  0.7090850    0.00000       Uiso       1.00
      C192          C  0.9344300  0.4424000  0.7126450    0.00000       Uiso       1.00
      H193          H  0.9391900  0.4654000  0.8574060    0.00000       Uiso       1.00
      C194          C  0.0313000  0.4776400  0.5026630    0.00000       Uiso       1.00
      C195          C  0.0312200  0.4488400  0.6647740    0.00000       Uiso       1.00
      C196          C  0.0615800  0.4435300  0.6640040    0.00000       Uiso       1.00
      C197          C  0.0930600  0.4670200  0.4975130    0.00000       Uiso       1.00
      C198          C  0.0927100  0.4948500  0.3247420    0.00000       Uiso       1.00
      C199          C  0.0626000  0.5001600  0.3314920    0.00000       Uiso       1.00
      N200          N  0.8598400  0.3501000  0.5077230    0.00000       Uiso       1.00
      C201          C  0.8556900  0.3177900  0.4533430    0.00000       Uiso       1.00
      N202          N  0.1232500  0.4616900  0.5013430    0.00000       Uiso       1.00
      C203          C  0.1560800  0.4897500  0.4586430    0.00000       Uiso       1.00
      C204          C  0.1874400  0.4848500  0.4456030    0.00000       Uiso       1.00
      H205          H  0.9797800  0.4227900  0.1853010    0.00000       Uiso       1.00
      H206          H  0.9180600  0.3644100  0.1634510    0.00000       Uiso       1.00
      H207          H  0.8777300  0.4050700  0.8555860    0.00000       Uiso       1.00
      H208          H  0.0064800  0.4303400  0.7939850    0.00000       Uiso       1.00
      H209          H  0.0620900  0.4214700  0.7919650    0.00000       Uiso       1.00
      H210          H  0.1158800  0.5111100  0.1736910    0.00000       Uiso       1.00
      H211          H  0.0626300  0.5222400  0.2008010    0.00000       Uiso       1.00
      H212          H  0.8797600  0.3131900  0.4271730    0.00000       Uiso       1.00
      H213          H  0.1613600  0.5187500  0.4424630    0.00000       Uiso       1.00
      C214          C  0.2246800  0.5119500  0.4434330    0.00000       Uiso       1.00
      C215          C  0.2471500  0.4956500  0.4438530    0.00000       Uiso       1.00
      C216          C  0.2266200  0.4563900  0.4421530    0.00000       Uiso       1.00
      S217          S  0.1796500  0.4398300  0.4451330    0.00000       Uiso       1.00
      C218          C  0.8193100  0.2863500  0.4427430    0.00000       Uiso       1.00
      C219          C  0.8089900  0.2490700  0.4388130    0.00000       Uiso       1.00
      S220          S  0.7820800  0.2941700  0.4501230    0.00000       Uiso       1.00
      H221          H  0.2339800  0.5417300  0.4450030    0.00000       Uiso       1.00
      H222          H  0.8291200  0.2393500  0.4371630    0.00000       Uiso       1.00
