data_HO2C-H2P-COFs
_audit_creation_date              0000-00-00
_audit_creation_method            'LanYouShi'
_symmetry_space_group_name_H-M    'P1'
_cell_length_a                    25.5352993
_cell_length_b                    6.7739000
_cell_length_c                    25.4792004
_cell_angle_alpha                 90.0000000
_cell_angle_beta                  90.4366989
_cell_angle_gamma                 90.0000000
loop_
_atom_site_label
_atom_site_type_symbol
_atom_site_fract_x
_atom_site_fract_y
_atom_site_fract_z
_atom_site_U_iso_or_equiv
_atom_site_adp_type
_atom_site_occupancy
        C1          C  0.5563290  0.4999980  0.5033800    0.00000       Uiso       1.00
        C2          C  0.4436890  0.4999980  0.4966050    0.00000       Uiso       1.00
        C3          C  0.0060270  0.4999980  0.9441260    0.00000       Uiso       1.00
        C4          C  0.9939910  0.4999980  0.0558590    0.00000       Uiso       1.00
        C5          C  0.6113970  0.4999980  0.5097300    0.00000       Uiso       1.00
        H6          H  0.6267760  0.4999980  0.5471020    0.00000       Uiso       1.00
        C7          C  0.3886210  0.4999980  0.4902550    0.00000       Uiso       1.00
        H8          H  0.3732420  0.4999980  0.4528830    0.00000       Uiso       1.00
        C9          C  0.0128970  0.4999980  0.8892680    0.00000       Uiso       1.00
       H10          H  0.0501980  0.4999980  0.8745639    0.00000       Uiso       1.00
       C11          C  0.9871210  0.4999980  0.1107180    0.00000       Uiso       1.00
       H12          H  0.9498200  0.4999980  0.1254220    0.00000       Uiso       1.00
       C13          C  0.5248960  0.4999980  0.5489680    0.00000       Uiso       1.00
       C14          C  0.4751220  0.4999980  0.4510170    0.00000       Uiso       1.00
       C15          C  0.0502040  0.4999980  0.9779750    0.00000       Uiso       1.00
       C16          C  0.9498140  0.4999980  0.0220100    0.00000       Uiso       1.00
       C17          C  0.4699480  0.4999980  0.5459810    0.00000       Uiso       1.00
       C18          C  0.5300690  0.4999980  0.4540040    0.00000       Uiso       1.00
       C19          C  0.0442720  0.4999980  0.0328710    0.00000       Uiso       1.00
       C20          C  0.9557459  0.4999980  0.9671140    0.00000       Uiso       1.00
       H21          H  0.5415580  0.4999980  0.5856100    0.00000       Uiso       1.00
       H22          H  0.4584600  0.4999980  0.4143750    0.00000       Uiso       1.00
       H23          H  0.0873050  0.4999980  0.9630000    0.00000       Uiso       1.00
       H24          H  0.9127130  0.4999980  0.0369850    0.00000       Uiso       1.00
       C25          C  0.0401460  0.4999980  0.6151620    0.00000       Uiso       1.00
       C26          C  0.9598720  0.4999980  0.3848230    0.00000       Uiso       1.00
       C27          C  0.1069200  0.4999980  0.5584970    0.00000       Uiso       1.00
       C28          C  0.8930970  0.4999980  0.4414880    0.00000       Uiso       1.00
       C29          C  0.0867770  0.4999980  0.6440970    0.00000       Uiso       1.00
       C30          C  0.9132410  0.4999980  0.3558880    0.00000       Uiso       1.00
       C31          C  0.1278090  0.4999980  0.6092770    0.00000       Uiso       1.00
       C32          C  0.8722090  0.4999980  0.3907080    0.00000       Uiso       1.00
       H33          H  0.0906160  0.4999980  0.6840390    0.00000       Uiso       1.00
       H34          H  0.9094020  0.4999980  0.3159460    0.00000       Uiso       1.00
       H35          H  0.1665580  0.4999980  0.6195930    0.00000       Uiso       1.00
       H36          H  0.8334600  0.4999980  0.3803920    0.00000       Uiso       1.00
       N37          N  0.9373480  0.4999980  0.5531680    0.00000       Uiso       1.00
       N38          N  0.0626700  0.4999980  0.4468170    0.00000       Uiso       1.00
       C39          C  0.9426320  0.4999980  0.6061790    0.00000       Uiso       1.00
       C40          C  0.0573860  0.4999980  0.3938060    0.00000       Uiso       1.00
       C41          C  0.1140470  0.4999980  0.4607310    0.00000       Uiso       1.00
       C42          C  0.8859700  0.4999980  0.5392550    0.00000       Uiso       1.00
       C43          C  0.8922080  0.4999980  0.6269390    0.00000       Uiso       1.00
       C44          C  0.1078100  0.4999980  0.3730470    0.00000       Uiso       1.00
       C45          C  0.1427780  0.4999980  0.4143480    0.00000       Uiso       1.00
       C46          C  0.8572400  0.4999980  0.5856370    0.00000       Uiso       1.00
       H47          H  0.8822280  0.4999980  0.6657130    0.00000       Uiso       1.00
       H48          H  0.1177900  0.4999980  0.3342730    0.00000       Uiso       1.00
       H49          H  0.1826250  0.4999980  0.4108500    0.00000       Uiso       1.00
       H50          H  0.8173921  0.4999980  0.5891350    0.00000       Uiso       1.00
       C51          C  0.9892390  0.4999980  0.6365800    0.00000       Uiso       1.00
       C52          C  0.0107790  0.4999980  0.3634060    0.00000       Uiso       1.00
       C53          C  0.1363640  0.4999980  0.5117340    0.00000       Uiso       1.00
       C54          C  0.8636540  0.4999980  0.4882520    0.00000       Uiso       1.00
       C55          C  0.9848260  0.4999980  0.6918361    0.00000       Uiso       1.00
       C56          C  0.0151920  0.4999980  0.3081490    0.00000       Uiso       1.00
       C57          C  0.1915430  0.4999980  0.5164480    0.00000       Uiso       1.00
       C58          C  0.8084750  0.4999980  0.4835370    0.00000       Uiso       1.00
       C59          C  0.9825610  0.6800480  0.7197391    0.00000       Uiso       1.00
       C60          C  0.0174570  0.6800480  0.2802460    0.00000       Uiso       1.00
       C61          C  0.0174570  0.3199490  0.2802460    0.00000       Uiso       1.00
       C62          C  0.9825610  0.3199490  0.7197391    0.00000       Uiso       1.00
       C63          C  0.2194010  0.3199270  0.5189070    0.00000       Uiso       1.00
       C64          C  0.7806160  0.3199270  0.4810780    0.00000       Uiso       1.00
       C65          C  0.7806160  0.6800700  0.4810780    0.00000       Uiso       1.00
       C66          C  0.2194010  0.6800700  0.5189070    0.00000       Uiso       1.00
       H67          H  0.9840440  0.8117310  0.7001140    0.00000       Uiso       1.00
       H68          H  0.0159740  0.8117310  0.2998710    0.00000       Uiso       1.00
       H69          H  0.0159740  0.1882660  0.2998710    0.00000       Uiso       1.00
       H70          H  0.9840440  0.1882660  0.7001140    0.00000       Uiso       1.00
       H71          H  0.1998180  0.1882300  0.5172770    0.00000       Uiso       1.00
       H72          H  0.8001990  0.1882300  0.4827080    0.00000       Uiso       1.00
       H73          H  0.8001990  0.8117670  0.4827080    0.00000       Uiso       1.00
       H74          H  0.1998180  0.8117670  0.5172770    0.00000       Uiso       1.00
       C75          C  0.9781830  0.6796451  0.7748120    0.00000       Uiso       1.00
       C76          C  0.0218350  0.6796451  0.2251730    0.00000       Uiso       1.00
       C77          C  0.0218350  0.3203520  0.2251730    0.00000       Uiso       1.00
       C78          C  0.9781830  0.3203520  0.7748120    0.00000       Uiso       1.00
       C79          C  0.2743910  0.3203620  0.5237230    0.00000       Uiso       1.00
       C80          C  0.7256271  0.3203620  0.4762630    0.00000       Uiso       1.00
       C81          C  0.7256271  0.6796350  0.4762630    0.00000       Uiso       1.00
       C82          C  0.2743910  0.6796350  0.5237230    0.00000       Uiso       1.00
       H83          H  0.9764140  0.8099400  0.7948990    0.00000       Uiso       1.00
       H84          H  0.0236030  0.8099400  0.2050860    0.00000       Uiso       1.00
       H85          H  0.0236030  0.1900570  0.2050860    0.00000       Uiso       1.00
       H86          H  0.9764140  0.1900570  0.7948990    0.00000       Uiso       1.00
       H87          H  0.2945210  0.1902260  0.5256690    0.00000       Uiso       1.00
       H88          H  0.7054970  0.1902260  0.4743160    0.00000       Uiso       1.00
       H89          H  0.7054970  0.8097710  0.4743160    0.00000       Uiso       1.00
       H90          H  0.2945210  0.8097710  0.5256690    0.00000       Uiso       1.00
       C91          C  0.9761940  0.4999980  0.8025110    0.00000       Uiso       1.00
       C92          C  0.0238240  0.4999980  0.1974740    0.00000       Uiso       1.00
       C93          C  0.3020160  0.4999980  0.5259460    0.00000       Uiso       1.00
       C94          C  0.6980020  0.4999980  0.4740390    0.00000       Uiso       1.00
       O95          O  0.4450770  0.4999980  0.5925710    0.00000       Uiso       1.00
       O96          O  0.5549410  0.4999980  0.4074140    0.00000       Uiso       1.00
       H97          H  0.0772020  0.4999980  0.0560450    0.00000       Uiso       1.00
       H98          H  0.9228160  0.4999980  0.9439399    0.00000       Uiso       1.00
       C99          C  0.5211190  0.4999980  0.3585410    0.00000       Uiso       1.00
      C100          C  0.5509620  0.4999980  0.3082340    0.00000       Uiso       1.00
      C101          C  0.5164220  0.4999980  0.2584370    0.00000       Uiso       1.00
      C102          C  0.5456290  0.5098720  0.2058250    0.00000       Uiso       1.00
      O103          O  0.4620310  0.5019540  0.3602990    0.00000       Uiso       1.00
      H104          H  0.5845030  0.3902350  0.3031360    0.00000       Uiso       1.00
      H105          H  0.5675930  0.6540430  0.3148540    0.00000       Uiso       1.00
      H106          H  0.4828200  0.6093810  0.2634820    0.00000       Uiso       1.00
      H107          H  0.4998940  0.3457000  0.2517970    0.00000       Uiso       1.00
      O108          O  0.6046360  0.5241300  0.2053010    0.00000       Uiso       1.00
      O109          O  0.5151840  0.5106170  0.1547830    0.00000       Uiso       1.00
      H110          H  0.6183520  0.5296570  0.1640530    0.00000       Uiso       1.00
      C111          C  0.4788980  0.4999980  0.6414440    0.00000       Uiso       1.00
      C112          C  0.4490560  0.4999980  0.6917520    0.00000       Uiso       1.00
      C113          C  0.4835960  0.4999980  0.7415480    0.00000       Uiso       1.00
      C114          C  0.4543890  0.5098720  0.7941610    0.00000       Uiso       1.00
      O115          O  0.5379870  0.5019540  0.6396860    0.00000       Uiso       1.00
      H116          H  0.4155140  0.3902350  0.6968500    0.00000       Uiso       1.00
      H117          H  0.4324250  0.6540430  0.6851310    0.00000       Uiso       1.00
      H118          H  0.5171980  0.6093810  0.7365030    0.00000       Uiso       1.00
      H119          H  0.5001240  0.3457000  0.7481880    0.00000       Uiso       1.00
      O120          O  0.3953820  0.5241300  0.7946840    0.00000       Uiso       1.00
      O121          O  0.4848340  0.5106170  0.8452020    0.00000       Uiso       1.00
      H122          H  0.3816660  0.5296570  0.8359320    0.00000       Uiso       1.00
      N123          N  0.3546410  0.4999980  0.5307330    0.00000       Uiso       1.00
      N124          N  0.6453770  0.4999980  0.4692520    0.00000       Uiso       1.00
      N125          N  0.0280510  0.4999980  0.1447530    0.00000       Uiso       1.00
      N126          N  0.9719670  0.4999980  0.8552320    0.00000       Uiso       1.00
      N127          N  0.0543830  0.4999980  0.5642210    0.00000       Uiso       1.00
      N128          N  0.9456350  0.4999980  0.4357650    0.00000       Uiso       1.00
      H129          H  0.0297040  0.4999980  0.5350840    0.00000       Uiso       1.00
      H130          H  0.9703140  0.4999980  0.4649010    0.00000       Uiso       1.00
