data_HPB-COF
_audit_creation_date              0000-00-00
_audit_creation_method            'LanYouShi'
_symmetry_space_group_name_H-M    'P1'
_cell_length_a                    21.4990997
_cell_length_b                    21.4990997
_cell_length_c                    5.6327000
_cell_angle_alpha                 90.0000000
_cell_angle_beta                  90.0000000
_cell_angle_gamma                 120.0000000
loop_
_atom_site_label
_atom_site_type_symbol
_atom_site_fract_x
_atom_site_fract_y
_atom_site_fract_z
_atom_site_U_iso_or_equiv
_atom_site_adp_type
_atom_site_occupancy
        C1          C  0.0651660  0.0678850  0.6710610    0.00000       Uiso       1.00
        C2          C  0.9321140  0.9972810  0.6710610    0.00000       Uiso       1.00
        C3          C  0.0027190  0.9348330  0.6710610    0.00000       Uiso       1.00
        C4          C  0.9348330  0.9321140  0.6710610    0.00000       Uiso       1.00
        C5          C  0.0678850  0.0027190  0.6710610    0.00000       Uiso       1.00
        C6          C  0.9972810  0.0651660  0.6710610    0.00000       Uiso       1.00
        C7          C  0.0373130  0.8522010  0.4855240    0.00000       Uiso       1.00
        C8          C  0.1477990  0.1851120  0.4855240    0.00000       Uiso       1.00
        C9          C  0.8148881  0.9626871  0.4855240    0.00000       Uiso       1.00
       C10          C  0.9626870  0.1477990  0.4855240    0.00000       Uiso       1.00
       C11          C  0.8522010  0.8148880  0.4855240    0.00000       Uiso       1.00
       C12          C  0.1851120  0.0373130  0.4855240    0.00000       Uiso       1.00
       C13          C  0.0411020  0.7887000  0.4911940    0.00000       Uiso       1.00
       C14          C  0.2112990  0.2524020  0.4911940    0.00000       Uiso       1.00
       C15          C  0.7475980  0.9588970  0.4911940    0.00000       Uiso       1.00
       C16          C  0.9588970  0.2112990  0.4911940    0.00000       Uiso       1.00
       C17          C  0.7887000  0.7475980  0.4911940    0.00000       Uiso       1.00
       C18          C  0.2524020  0.0411020  0.4911940    0.00000       Uiso       1.00
       C19          C  0.0108040  0.7400370  0.6810180    0.00000       Uiso       1.00
       C20          C  0.2599620  0.2707660  0.6810180    0.00000       Uiso       1.00
       C21          C  0.7292330  0.9891950  0.6810180    0.00000       Uiso       1.00
       C22          C  0.9891950  0.2599620  0.6810180    0.00000       Uiso       1.00
       C23          C  0.7400370  0.7292330  0.6810180    0.00000       Uiso       1.00
       C24          C  0.2707660  0.0108040  0.6810180    0.00000       Uiso       1.00
       C25          C  0.9784000  0.7569420  0.8689940    0.00000       Uiso       1.00
       C26          C  0.2430570  0.2214570  0.8689940    0.00000       Uiso       1.00
       C27          C  0.7785420  0.0216000  0.8689940    0.00000       Uiso       1.00
       C28          C  0.0216000  0.2430570  0.8689940    0.00000       Uiso       1.00
       C29          C  0.7569420  0.7785420  0.8689940    0.00000       Uiso       1.00
       C30          C  0.2214570  0.9783999  0.8689940    0.00000       Uiso       1.00
       C31          C  0.9767320  0.8215410  0.8665940    0.00000       Uiso       1.00
       C32          C  0.1784590  0.1551910  0.8665940    0.00000       Uiso       1.00
       C33          C  0.8448090  0.0232680  0.8665940    0.00000       Uiso       1.00
       C34          C  0.0232680  0.1784590  0.8665940    0.00000       Uiso       1.00
       C35          C  0.8215410  0.8448090  0.8665940    0.00000       Uiso       1.00
       C36          C  0.1551910  0.9767320  0.8665940    0.00000       Uiso       1.00
       C37          C  0.0054540  0.8699590  0.6738230    0.00000       Uiso       1.00
       C38          C  0.1300410  0.1354950  0.6738230    0.00000       Uiso       1.00
       C39          C  0.8645050  0.9945460  0.6738230    0.00000       Uiso       1.00
       C40          C  0.9945460  0.1300410  0.6738230    0.00000       Uiso       1.00
       C41          C  0.8699590  0.8645049  0.6738230    0.00000       Uiso       1.00
       C42          C  0.1354950  0.0054540  0.6738230    0.00000       Uiso       1.00
       C43          C  0.5725990  0.0148450  0.7606160    0.00000       Uiso       1.00
       C44          C  0.9851550  0.5577540  0.7606160    0.00000       Uiso       1.00
       C45          C  0.4422450  0.4274000  0.7606160    0.00000       Uiso       1.00
       C46          C  0.4274000  0.9851550  0.7606160    0.00000       Uiso       1.00
       C47          C  0.0148450  0.4422450  0.7606160    0.00000       Uiso       1.00
       C48          C  0.5577540  0.5725990  0.7606160    0.00000       Uiso       1.00
       C49          C  0.5146760  0.9433280  0.7584740    0.00000       Uiso       1.00
       C50          C  0.0566710  0.5713470  0.7584740    0.00000       Uiso       1.00
       C51          C  0.4286520  0.4853230  0.7584740    0.00000       Uiso       1.00
       C52          C  0.4853230  0.0566710  0.7584740    0.00000       Uiso       1.00
       C53          C  0.9433280  0.4286520  0.7584740    0.00000       Uiso       1.00
       C54          C  0.5713470  0.5146760  0.7584740    0.00000       Uiso       1.00
       C55          C  0.4430920  0.9286559  0.7610351    0.00000       Uiso       1.00
       C56          C  0.0713440  0.5144360  0.7610351    0.00000       Uiso       1.00
       C57          C  0.4855640  0.5569080  0.7610351    0.00000       Uiso       1.00
       C58          C  0.5569080  0.0713440  0.7610351    0.00000       Uiso       1.00
       C59          C  0.9286560  0.4855640  0.7610351    0.00000       Uiso       1.00
       C60          C  0.5144350  0.4430920  0.7610351    0.00000       Uiso       1.00
       H61          H  0.5243430  0.9012860  0.7575470    0.00000       Uiso       1.00
       H62          H  0.0987140  0.6230570  0.7575470    0.00000       Uiso       1.00
       H63          H  0.3769420  0.4756560  0.7575470    0.00000       Uiso       1.00
       H64          H  0.4756560  0.0987140  0.7575470    0.00000       Uiso       1.00
       H65          H  0.9012860  0.3769420  0.7575470    0.00000       Uiso       1.00
       H66          H  0.6230570  0.5243430  0.7575470    0.00000       Uiso       1.00
       H67          H  0.4024900  0.8762330  0.7621250    0.00000       Uiso       1.00
       H68          H  0.1237670  0.5262570  0.7621250    0.00000       Uiso       1.00
       H69          H  0.4737430  0.5975100  0.7621250    0.00000       Uiso       1.00
       H70          H  0.5975100  0.1237670  0.7621250    0.00000       Uiso       1.00
       H71          H  0.8762330  0.4737430  0.7621250    0.00000       Uiso       1.00
       H72          H  0.5262570  0.4024900  0.7621250    0.00000       Uiso       1.00
       H73          H  0.0584030  0.8857921  0.3434590    0.00000       Uiso       1.00
       H74          H  0.1142080  0.1726110  0.3434590    0.00000       Uiso       1.00
       H75          H  0.8273890  0.9415970  0.3434590    0.00000       Uiso       1.00
       H76          H  0.9415970  0.1142080  0.3434590    0.00000       Uiso       1.00
       H77          H  0.8857920  0.8273890  0.3434590    0.00000       Uiso       1.00
       H78          H  0.1726110  0.0584030  0.3434590    0.00000       Uiso       1.00
       H79          H  0.0655400  0.7775340  0.3551890    0.00000       Uiso       1.00
       H80          H  0.2224650  0.2880050  0.3551890    0.00000       Uiso       1.00
       H81          H  0.7119940  0.9344590  0.3551890    0.00000       Uiso       1.00
       H82          H  0.9344589  0.2224650  0.3551890    0.00000       Uiso       1.00
       H83          H  0.7775340  0.7119940  0.3551890    0.00000       Uiso       1.00
       H84          H  0.2880050  0.0655400  0.3551890    0.00000       Uiso       1.00
       H85          H  0.9567650  0.7227710  1.0098100    0.00000       Uiso       1.00
       H86          H  0.2772290  0.2339940  1.0098100    0.00000       Uiso       1.00
       H87          H  0.7660060  0.0432350  1.0098100    0.00000       Uiso       1.00
       H88          H  0.0432350  0.2772290  1.0098100    0.00000       Uiso       1.00
       H89          H  0.7227710  0.7660060  1.0098100    0.00000       Uiso       1.00
       H90          H  0.2339940  0.9567650  1.0098100    0.00000       Uiso       1.00
       H91          H  0.9541839  0.8331000  1.0067430    0.00000       Uiso       1.00
       H92          H  0.1668990  0.1210840  1.0067430    0.00000       Uiso       1.00
       H93          H  0.8789160  0.0458150  1.0067430    0.00000       Uiso       1.00
       H94          H  0.0458150  0.1668990  1.0067430    0.00000       Uiso       1.00
       H95          H  0.8331000  0.8789160  1.0067430    0.00000       Uiso       1.00
       H96          H  0.1210840  0.9541841  1.0067430    0.00000       Uiso       1.00
       N97          N  0.6796590  0.6640920  0.6750770    0.00000       Uiso       1.00
       N98          N  0.3359070  0.0155670  0.6750770    0.00000       Uiso       1.00
       N99          N  0.9844320  0.3203400  0.6750770    0.00000       Uiso       1.00
      N100          N  0.3203400  0.3359070  0.6750770    0.00000       Uiso       1.00
      N101          N  0.6640920  0.9844320  0.6750770    0.00000       Uiso       1.00
      N102          N  0.0155670  0.6796590  0.6750770    0.00000       Uiso       1.00
      C103          C  0.6140510  0.6443780  0.7658440    0.00000       Uiso       1.00
      C104          C  0.3556210  0.9696720  0.7658440    0.00000       Uiso       1.00
      C105          C  0.0303280  0.3859490  0.7658440    0.00000       Uiso       1.00
      C106          C  0.3859490  0.3556210  0.7658440    0.00000       Uiso       1.00
      C107          C  0.6443780  0.0303280  0.7658440    0.00000       Uiso       1.00
      C108          C  0.9696720  0.6140510  0.7658440    0.00000       Uiso       1.00
      H109          H  0.6043960  0.6826830  0.8362809    0.00000       Uiso       1.00
      H110          H  0.3173160  0.9217120  0.8362809    0.00000       Uiso       1.00
      H111          H  0.0782870  0.3956040  0.8362809    0.00000       Uiso       1.00
      H112          H  0.3956040  0.3173160  0.8362809    0.00000       Uiso       1.00
      H113          H  0.6826830  0.0782870  0.8362809    0.00000       Uiso       1.00
      H114          H  0.9217120  0.6043960  0.8362809    0.00000       Uiso       1.00
