data_IISERP-COF3
_audit_creation_date              0000-00-00
_audit_creation_method            'LanYouShi'
_symmetry_space_group_name_H-M    'P1'
_cell_length_a                    28.2551003
_cell_length_b                    10.5194998
_cell_length_c                    27.9300995
_cell_angle_alpha                 90.0000000
_cell_angle_beta                  119.9306030
_cell_angle_gamma                 90.0000000
loop_
_atom_site_label
_atom_site_type_symbol
_atom_site_fract_x
_atom_site_fract_y
_atom_site_fract_z
_atom_site_U_iso_or_equiv
_atom_site_adp_type
_atom_site_occupancy
        C1          C  0.4422530  0.4999980  0.4248000    0.00000       Uiso       1.00
        C2          C  0.4808150  0.4999980  0.0566510    0.00000       Uiso       1.00
        C3          C  0.0743680  0.4999980  0.0167310    0.00000       Uiso       1.00
        C4          C  0.9082820  0.4999980  0.8743610    0.00000       Uiso       1.00
        C5          C  0.6253340  0.4999980  0.0369530    0.00000       Uiso       1.00
        C6          C  0.4675100  0.4999980  0.5929140    0.00000       Uiso       1.00
        C7          C  0.5577480  0.4999980  0.5751980    0.00000       Uiso       1.00
        C8          C  0.5191850  0.4999980  0.9433480    0.00000       Uiso       1.00
        C9          C  0.9256330  0.4999980  0.9832670    0.00000       Uiso       1.00
       C10          C  0.0917190  0.4999980  0.1256380    0.00000       Uiso       1.00
       C11          C  0.3746660  0.4999980  0.9630460    0.00000       Uiso       1.00
       C12          C  0.5324910  0.4999980  0.4070850    0.00000       Uiso       1.00
       C13          C  0.4958010  0.4999980  0.4723920    0.00000       Uiso       1.00
       C14          C  0.4763130  0.4999980  0.0032780    0.00000       Uiso       1.00
       C15          C  0.0272750  0.4999980  0.0233280    0.00000       Uiso       1.00
       C16          C  0.9616110  0.4999980  0.9205100    0.00000       Uiso       1.00
       C17          C  0.5785210  0.4999980  0.0428390    0.00000       Uiso       1.00
       C18          C  0.4598300  0.4999980  0.5389330    0.00000       Uiso       1.00
       C19          C  0.5042000  0.4999980  0.5276070    0.00000       Uiso       1.00
       C20          C  0.5236880  0.4999980  0.9967210    0.00000       Uiso       1.00
       C21          C  0.9727260  0.4999980  0.9766710    0.00000       Uiso       1.00
       C22          C  0.0383900  0.4999980  0.0794890    0.00000       Uiso       1.00
       C23          C  0.4214800  0.4999980  0.9571600    0.00000       Uiso       1.00
       C24          C  0.5401710  0.4999980  0.4610660    0.00000       Uiso       1.00
       H25          H  0.4072670  0.4999980  0.4266130    0.00000       Uiso       1.00
       H26          H  0.5169120  0.4999980  0.0927180    0.00000       Uiso       1.00
       H27          H  0.0726340  0.4999980  0.9795560    0.00000       Uiso       1.00
       H28          H  0.9014870  0.4999980  0.8348771    0.00000       Uiso       1.00
       H29          H  0.6638590  0.4999980  0.0703430    0.00000       Uiso       1.00
       H30          H  0.4352980  0.4999980  0.5998470    0.00000       Uiso       1.00
       H31          H  0.5927340  0.4999980  0.5733860    0.00000       Uiso       1.00
       H32          H  0.4830890  0.4999980  0.9072810    0.00000       Uiso       1.00
       H33          H  0.9273670  0.4999980  0.0204430    0.00000       Uiso       1.00
       H34          H  0.0985140  0.4999980  0.1651220    0.00000       Uiso       1.00
       H35          H  0.3361420  0.4999980  0.9296560    0.00000       Uiso       1.00
       H36          H  0.5647030  0.4999980  0.4001520    0.00000       Uiso       1.00
       N37          N  0.5399380  0.4999980  0.6916970    0.00000       Uiso       1.00
       N38          N  0.6527230  0.4999980  0.9649780    0.00000       Uiso       1.00
       N39          N  0.8105940  0.4999980  0.8489170    0.00000       Uiso       1.00
       N40          N  0.1758000  0.4999980  0.0667320    0.00000       Uiso       1.00
       N41          N  0.4295270  0.4999980  0.1072710    0.00000       Uiso       1.00
       N42          N  0.3903350  0.4999980  0.3221890    0.00000       Uiso       1.00
       N43          N  0.4600630  0.4999980  0.3083020    0.00000       Uiso       1.00
       N44          N  0.3472770  0.4999980  0.0350210    0.00000       Uiso       1.00
       N45          N  0.1894070  0.4999980  0.1510820    0.00000       Uiso       1.00
       N46          N  0.8242010  0.4999980  0.9332671    0.00000       Uiso       1.00
       N47          N  0.5704730  0.4999980  0.8927280    0.00000       Uiso       1.00
       N48          N  0.6096660  0.4999980  0.6778100    0.00000       Uiso       1.00
       C49          C  0.4352790  0.4999980  0.3715560    0.00000       Uiso       1.00
       C50          C  0.4341510  0.4999980  0.0620370    0.00000       Uiso       1.00
       C51          C  0.1269690  0.4999980  0.0628600    0.00000       Uiso       1.00
       C52          C  0.8643380  0.4999980  0.8840240    0.00000       Uiso       1.00
       C53          C  0.6175380  0.4999980  0.9835220    0.00000       Uiso       1.00
       C54          C  0.5209410  0.4999980  0.6373160    0.00000       Uiso       1.00
       C55          C  0.5647210  0.4999980  0.6284430    0.00000       Uiso       1.00
       C56          C  0.5658500  0.4999980  0.9379620    0.00000       Uiso       1.00
       C57          C  0.8730320  0.4999980  0.9371390    0.00000       Uiso       1.00
       C58          C  0.1356630  0.4999980  0.1159750    0.00000       Uiso       1.00
       C59          C  0.3824630  0.4999980  0.0164770    0.00000       Uiso       1.00
       C60          C  0.4790600  0.4999980  0.3626830    0.00000       Uiso       1.00
       C61          C  0.4044810  0.4999980  0.2823180    0.00000       Uiso       1.00
       C62          C  0.3754810  0.4999980  0.0912010    0.00000       Uiso       1.00
       C63          C  0.2151640  0.4999980  0.1208500    0.00000       Uiso       1.00
       C64          C  0.5955200  0.4999980  0.7176810    0.00000       Uiso       1.00
       C65          C  0.6245200  0.4999980  0.9087980    0.00000       Uiso       1.00
       C66          C  0.7848369  0.4999980  0.8791479    0.00000       Uiso       1.00
       C67          C  0.6318980  0.4999980  0.7761350    0.00000       Uiso       1.00
       C68          C  0.6465310  0.4999980  0.8724539    0.00000       Uiso       1.00
       C69          C  0.7270400  0.4999980  0.8575440    0.00000       Uiso       1.00
       C70          C  0.3681030  0.4999980  0.2238640    0.00000       Uiso       1.00
       C71          C  0.3534690  0.4999980  0.1275450    0.00000       Uiso       1.00
       C72          C  0.2729610  0.4999980  0.1424550    0.00000       Uiso       1.00
       C73          C  0.6118220  0.4999980  0.8139140    0.00000       Uiso       1.00
       C74          C  0.7039050  0.4999980  0.8927431    0.00000       Uiso       1.00
       C75          C  0.6897560  0.4999980  0.7994970    0.00000       Uiso       1.00
       C76          C  0.3881780  0.4999980  0.1860850    0.00000       Uiso       1.00
       C77          C  0.2960960  0.4999980  0.1072560    0.00000       Uiso       1.00
       C78          C  0.3102450  0.4999980  0.2005020    0.00000       Uiso       1.00
       O79          O  0.7089330  0.4999980  0.7675340    0.00000       Uiso       1.00
       O80          O  0.5610810  0.4999980  0.7946150    0.00000       Uiso       1.00
       O81          O  0.7354570  0.4999980  0.9440240    0.00000       Uiso       1.00
       O82          O  0.2910680  0.4999980  0.2324650    0.00000       Uiso       1.00
       O83          O  0.4389200  0.4999980  0.2053840    0.00000       Uiso       1.00
       O84          O  0.2645430  0.4999980  0.0559750    0.00000       Uiso       1.00
       H85          H  0.5865660  0.4999980  0.0825880    0.00000       Uiso       1.00
       H86          H  0.9919170  0.4999980  0.9109580    0.00000       Uiso       1.00
       H87          H  0.4201280  0.4999980  0.5083150    0.00000       Uiso       1.00
       H88          H  0.3534750  0.4999980  0.3160600    0.00000       Uiso       1.00
       H89          H  0.1819080  0.4999980  0.0355910    0.00000       Uiso       1.00
       H90          H  0.6920690  0.4999980  0.9880640    0.00000       Uiso       1.00
       H91          H  0.4134340  0.4999980  0.9174111    0.00000       Uiso       1.00
       H92          H  0.0080830  0.4999980  0.0890410    0.00000       Uiso       1.00
       H93          H  0.5798730  0.4999980  0.4916840    0.00000       Uiso       1.00
       H94          H  0.6465260  0.4999980  0.6839390    0.00000       Uiso       1.00
       H95          H  0.8180930  0.4999980  0.9644070    0.00000       Uiso       1.00
       H96          H  0.3079310  0.4999980  0.0119340    0.00000       Uiso       1.00
