data_ACOF-1
_audit_creation_date              0000-00-00
_audit_creation_method            'LanYouShi'
_symmetry_space_group_name_H-M    'P1'
_cell_length_a                    16.0823994
_cell_length_b                    16.0823994
_cell_length_c                    3.4000001
_cell_angle_alpha                 90.0000000
_cell_angle_beta                  90.0000000
_cell_angle_gamma                 120.0000000
loop_
_atom_site_label
_atom_site_type_symbol
_atom_site_fract_x
_atom_site_fract_y
_atom_site_fract_z
_atom_site_U_iso_or_equiv
_atom_site_adp_type
_atom_site_occupancy
        N1          N  0.5450580  0.5359810  1.4705880    0.00000       Uiso       1.00
        N2          N  0.4549420  0.4640180  1.4705880    0.00000       Uiso       1.00
        C3          C  0.6245870  0.5263480  1.4705880    0.00000       Uiso       1.00
        C4          C  0.3754130  0.4736520  1.4705880    0.00000       Uiso       1.00
        H5          H  0.6213100  0.4610540  1.4705880    0.00000       Uiso       1.00
        H6          H  0.3786890  0.5389460  1.4705880    0.00000       Uiso       1.00
        N7          N  0.9640180  0.5090770  1.4705880    0.00000       Uiso       1.00
        N8          N  0.0359810  0.4909230  1.4705890    0.00000       Uiso       1.00
        C9          C  0.9736520  0.5982380  1.4705890    0.00000       Uiso       1.00
       C10          C  0.0263480  0.4017610  1.4705880    0.00000       Uiso       1.00
       H11          H  0.0389460  0.6602560  1.4705890    0.00000       Uiso       1.00
       H12          H  0.9610540  0.3397430  1.4705880    0.00000       Uiso       1.00
       N13          N  0.9909230  0.9549420  1.4705900    0.00000       Uiso       1.00
       N14          N  0.0090770  0.0450580  1.4705900    0.00000       Uiso       1.00
       C15          C  0.9017610  0.8754130  1.4705890    0.00000       Uiso       1.00
       C16          C  0.0982390  0.1245870  1.4705900    0.00000       Uiso       1.00
       H17          H  0.8397430  0.8786890  1.4705890    0.00000       Uiso       1.00
       H18          H  0.1602570  0.1213100  1.4705900    0.00000       Uiso       1.00
       C19          C  0.7345130  0.6002400  1.4705880    0.00000       Uiso       1.00
       C20          C  0.8657270  0.7654871  1.4705890    0.00000       Uiso       1.00
       C21          C  0.8997600  0.6342730  1.4705890    0.00000       Uiso       1.00
       C22          C  0.7670720  0.6989800  1.4705890    0.00000       Uiso       1.00
       C23          C  0.9319080  0.7329280  1.4705890    0.00000       Uiso       1.00
       C24          C  0.8010200  0.5680910  1.4705880    0.00000       Uiso       1.00
       H25          H  0.7759850  0.4917210  1.4705880    0.00000       Uiso       1.00
       H26          H  0.7157360  0.7240140  1.4705890    0.00000       Uiso       1.00
       H27          H  0.0082790  0.7842640  1.4705890    0.00000       Uiso       1.00
       C28          C  0.2654870  0.3997600  1.4705880    0.00000       Uiso       1.00
       C29          C  0.1342730  0.2345130  1.4705890    0.00000       Uiso       1.00
       C30          C  0.1002400  0.3657270  1.4705890    0.00000       Uiso       1.00
       C31          C  0.2329280  0.3010200  1.4705890    0.00000       Uiso       1.00
       C32          C  0.0680920  0.2670710  1.4705890    0.00000       Uiso       1.00
       C33          C  0.1989800  0.4319080  1.4705880    0.00000       Uiso       1.00
       H34          H  0.2240140  0.5082780  1.4705880    0.00000       Uiso       1.00
       H35          H  0.2842640  0.2759850  1.4705890    0.00000       Uiso       1.00
       H36          H  0.9917210  0.2157360  1.4705890    0.00000       Uiso       1.00
