data_ILCOF-1-AB
_audit_creation_date              0000-00-00
_audit_creation_method            'LanYouShi'
_symmetry_space_group_name_H-M    'P1'
_cell_length_a                    34.2434998
_cell_length_b                    34.6946983
_cell_length_c                    12.5394001
_cell_angle_alpha                 90.0000000
_cell_angle_beta                  90.0000000
_cell_angle_gamma                 90.0000000
loop_
_atom_site_label
_atom_site_type_symbol
_atom_site_fract_x
_atom_site_fract_y
_atom_site_fract_z
_atom_site_U_iso_or_equiv
_atom_site_adp_type
_atom_site_occupancy
        C1          C  0.4641200  0.4590800  0.4939700    0.00000       Uiso       1.00
        C2          C  0.4289600  0.5200500  0.4903600    0.00000       Uiso       1.00
        C3          C  0.4643800  0.5817300  0.4951100    0.00000       Uiso       1.00
        C4          C  0.4281400  0.6048700  0.5020600    0.00000       Uiso       1.00
        C5          C  0.4046200  0.6028600  0.5934700    0.00000       Uiso       1.00
        C6          C  0.3711500  0.6256900  0.6019000    0.00000       Uiso       1.00
        C7          C  0.3607700  0.6510000  0.5193100    0.00000       Uiso       1.00
        C8          C  0.3844500  0.6530400  0.4277800    0.00000       Uiso       1.00
        C9          C  0.4179900  0.6302500  0.4195500    0.00000       Uiso       1.00
       C10          C  0.3256900  0.6753700  0.5312800    0.00000       Uiso       1.00
       C11          C  0.7815300  0.7761800  0.4588700    0.00000       Uiso       1.00
       C12          C  0.7657500  0.7628300  0.3627900    0.00000       Uiso       1.00
       C13          C  0.7343200  0.7371000  0.5557200    0.00000       Uiso       1.00
       H14          H  0.4010000  0.5345100  0.4863400    0.00000       Uiso       1.00
       H15          H  0.4123800  0.5837900  0.6585100    0.00000       Uiso       1.00
       H16          H  0.3534800  0.6237600  0.6733500    0.00000       Uiso       1.00
       H17          H  0.3772800  0.6724300  0.3630000    0.00000       Uiso       1.00
       H18          H  0.4360800  0.6323700  0.3489100    0.00000       Uiso       1.00
       H19          H  0.3092500  0.6734200  0.6047800    0.00000       Uiso       1.00
       H20          H  0.7777600  0.7726600  0.2877200    0.00000       Uiso       1.00
       H21          H  0.7223700  0.7281500  0.6314800    0.00000       Uiso       1.00
       N22          N  0.3143600  0.6980300  0.4547700    0.00000       Uiso       1.00
       C23          C  0.4641200  0.9590800  0.9939700    0.00000       Uiso       1.00
       C24          C  0.4289600  0.0200500  0.9903600    0.00000       Uiso       1.00
       C25          C  0.4643800  0.0817300  0.9951099    0.00000       Uiso       1.00
       C26          C  0.4281400  0.1048700  1.0020601    0.00000       Uiso       1.00
       C27          C  0.4046200  0.1028600  1.0934700    0.00000       Uiso       1.00
       C28          C  0.3711500  0.1256900  1.1019000    0.00000       Uiso       1.00
       C29          C  0.3607700  0.1510000  1.0193100    0.00000       Uiso       1.00
       C30          C  0.3844500  0.1530400  0.9277800    0.00000       Uiso       1.00
       C31          C  0.4179900  0.1302500  0.9195500    0.00000       Uiso       1.00
       C32          C  0.3256900  0.1753700  1.0312800    0.00000       Uiso       1.00
       C33          C  0.7815300  0.2761800  0.9588701    0.00000       Uiso       1.00
       C34          C  0.7657500  0.2628300  0.8627900    0.00000       Uiso       1.00
       C35          C  0.7343200  0.2371000  1.0557200    0.00000       Uiso       1.00
       H36          H  0.4010000  0.0345100  0.9863400    0.00000       Uiso       1.00
       H37          H  0.4123800  0.0837900  1.1585100    0.00000       Uiso       1.00
       H38          H  0.3534800  0.1237600  1.1733500    0.00000       Uiso       1.00
       H39          H  0.3772800  0.1724300  0.8630000    0.00000       Uiso       1.00
       H40          H  0.4360800  0.1323700  0.8489100    0.00000       Uiso       1.00
       H41          H  0.3092500  0.1734200  1.1047800    0.00000       Uiso       1.00
       H42          H  0.7777600  0.2726600  0.7877200    0.00000       Uiso       1.00
       H43          H  0.7223700  0.2281500  1.1314800    0.00000       Uiso       1.00
       N44          N  0.3143600  0.1980300  0.9547700    0.00000       Uiso       1.00
       C45          C  0.9641200  0.4590800  0.9939700    0.00000       Uiso       1.00
       C46          C  0.9289600  0.5200500  0.9903600    0.00000       Uiso       1.00
       C47          C  0.9643800  0.5817300  0.9951099    0.00000       Uiso       1.00
       C48          C  0.9281400  0.6048700  1.0020601    0.00000       Uiso       1.00
       C49          C  0.9046200  0.6028600  1.0934700    0.00000       Uiso       1.00
       C50          C  0.8711500  0.6256900  1.1019000    0.00000       Uiso       1.00
       C51          C  0.8607700  0.6510000  1.0193100    0.00000       Uiso       1.00
       C52          C  0.8844500  0.6530400  0.9277800    0.00000       Uiso       1.00
       C53          C  0.9179900  0.6302500  0.9195500    0.00000       Uiso       1.00
       C54          C  0.8256900  0.6753700  1.0312800    0.00000       Uiso       1.00
       C55          C  0.2815300  0.7761800  0.9588701    0.00000       Uiso       1.00
       C56          C  0.2657500  0.7628300  0.8627900    0.00000       Uiso       1.00
       C57          C  0.2343200  0.7371000  1.0557200    0.00000       Uiso       1.00
       H58          H  0.9010000  0.5345100  0.9863400    0.00000       Uiso       1.00
       H59          H  0.9123800  0.5837900  1.1585100    0.00000       Uiso       1.00
       H60          H  0.8534800  0.6237600  1.1733500    0.00000       Uiso       1.00
       H61          H  0.8772800  0.6724300  0.8630000    0.00000       Uiso       1.00
       H62          H  0.9360799  0.6323700  0.8489100    0.00000       Uiso       1.00
       H63          H  0.8092500  0.6734200  1.1047800    0.00000       Uiso       1.00
       H64          H  0.2777600  0.7726600  0.7877200    0.00000       Uiso       1.00
       H65          H  0.2223700  0.7281500  1.1314800    0.00000       Uiso       1.00
       N66          N  0.8143600  0.6980300  0.9547700    0.00000       Uiso       1.00
       C67          C  0.9641200  0.9590800  0.4939700    0.00000       Uiso       1.00
       C68          C  0.9289600  0.0200500  0.4903600    0.00000       Uiso       1.00
       C69          C  0.9643800  0.0817300  0.4951100    0.00000       Uiso       1.00
       C70          C  0.9281400  0.1048700  0.5020600    0.00000       Uiso       1.00
       C71          C  0.9046200  0.1028600  0.5934700    0.00000       Uiso       1.00
       C72          C  0.8711500  0.1256900  0.6019000    0.00000       Uiso       1.00
       C73          C  0.8607700  0.1510000  0.5193100    0.00000       Uiso       1.00
       C74          C  0.8844500  0.1530400  0.4277800    0.00000       Uiso       1.00
       C75          C  0.9179900  0.1302500  0.4195500    0.00000       Uiso       1.00
       C76          C  0.8256900  0.1753700  0.5312800    0.00000       Uiso       1.00
       C77          C  0.2815300  0.2761800  0.4588700    0.00000       Uiso       1.00
       C78          C  0.2657500  0.2628300  0.3627900    0.00000       Uiso       1.00
       C79          C  0.2343200  0.2371000  0.5557200    0.00000       Uiso       1.00
       H80          H  0.9010000  0.0345100  0.4863400    0.00000       Uiso       1.00
       H81          H  0.9123800  0.0837900  0.6585100    0.00000       Uiso       1.00
       H82          H  0.8534800  0.1237600  0.6733500    0.00000       Uiso       1.00
       H83          H  0.8772800  0.1724300  0.3630000    0.00000       Uiso       1.00
       H84          H  0.9360799  0.1323700  0.3489100    0.00000       Uiso       1.00
       H85          H  0.8092500  0.1734200  0.6047800    0.00000       Uiso       1.00
       H86          H  0.2777600  0.2726600  0.2877200    0.00000       Uiso       1.00
       H87          H  0.2223700  0.2281500  0.6314800    0.00000       Uiso       1.00
       N88          N  0.8143600  0.1980300  0.4547700    0.00000       Uiso       1.00
       C89          C  0.5358800  0.5409200  0.4939700    0.00000       Uiso       1.00
       C90          C  0.5710400  0.4799500  0.4903600    0.00000       Uiso       1.00
       C91          C  0.5356200  0.4182700  0.4951100    0.00000       Uiso       1.00
       C92          C  0.5718600  0.3951300  0.5020600    0.00000       Uiso       1.00
       C93          C  0.5953800  0.3971400  0.5934700    0.00000       Uiso       1.00
       C94          C  0.6288500  0.3743100  0.6019000    0.00000       Uiso       1.00
       C95          C  0.6392300  0.3490000  0.5193100    0.00000       Uiso       1.00
       C96          C  0.6155500  0.3469600  0.4277800    0.00000       Uiso       1.00
       C97          C  0.5820100  0.3697500  0.4195500    0.00000       Uiso       1.00
       C98          C  0.6743100  0.3246300  0.5312800    0.00000       Uiso       1.00
       C99          C  0.2184700  0.2238200  0.4588700    0.00000       Uiso       1.00
      C100          C  0.2342500  0.2371700  0.3627900    0.00000       Uiso       1.00
      C101          C  0.2656800  0.2629000  0.5557200    0.00000       Uiso       1.00
      H102          H  0.5990000  0.4654900  0.4863400    0.00000       Uiso       1.00
      H103          H  0.5876200  0.4162100  0.6585100    0.00000       Uiso       1.00
      H104          H  0.6465200  0.3762400  0.6733500    0.00000       Uiso       1.00
      H105          H  0.6227200  0.3275700  0.3630000    0.00000       Uiso       1.00
      H106          H  0.5639200  0.3676300  0.3489100    0.00000       Uiso       1.00
      H107          H  0.6907500  0.3265800  0.6047800    0.00000       Uiso       1.00
      H108          H  0.2222400  0.2273400  0.2877200    0.00000       Uiso       1.00
      H109          H  0.2776300  0.2718500  0.6314800    0.00000       Uiso       1.00
      N110          N  0.6856400  0.3019700  0.4547700    0.00000       Uiso       1.00
      C111          C  0.5358800  0.0409200  0.9939700    0.00000       Uiso       1.00
      C112          C  0.5710400  0.9799500  0.9903600    0.00000       Uiso       1.00
      C113          C  0.5356200  0.9182700  0.9951099    0.00000       Uiso       1.00
      C114          C  0.5718600  0.8951300  1.0020601    0.00000       Uiso       1.00
      C115          C  0.5953800  0.8971400  1.0934700    0.00000       Uiso       1.00
      C116          C  0.6288500  0.8743100  1.1019000    0.00000       Uiso       1.00
      C117          C  0.6392300  0.8490000  1.0193100    0.00000       Uiso       1.00
      C118          C  0.6155500  0.8469600  0.9277800    0.00000       Uiso       1.00
      C119          C  0.5820100  0.8697500  0.9195500    0.00000       Uiso       1.00
      C120          C  0.6743100  0.8246300  1.0312800    0.00000       Uiso       1.00
      C121          C  0.2184700  0.7238200  0.9588701    0.00000       Uiso       1.00
      C122          C  0.2342500  0.7371700  0.8627900    0.00000       Uiso       1.00
      C123          C  0.2656800  0.7629000  1.0557200    0.00000       Uiso       1.00
      H124          H  0.5990000  0.9654900  0.9863400    0.00000       Uiso       1.00
      H125          H  0.5876200  0.9162100  1.1585100    0.00000       Uiso       1.00
      H126          H  0.6465200  0.8762400  1.1733500    0.00000       Uiso       1.00
      H127          H  0.6227200  0.8275700  0.8630000    0.00000       Uiso       1.00
      H128          H  0.5639200  0.8676300  0.8489100    0.00000       Uiso       1.00
      H129          H  0.6907500  0.8265800  1.1047800    0.00000       Uiso       1.00
      H130          H  0.2222400  0.7273400  0.7877200    0.00000       Uiso       1.00
      H131          H  0.2776300  0.7718500  1.1314800    0.00000       Uiso       1.00
      N132          N  0.6856400  0.8019700  0.9547700    0.00000       Uiso       1.00
      C133          C  0.0358800  0.5409200  0.9939700    0.00000       Uiso       1.00
      C134          C  0.0710400  0.4799500  0.9903600    0.00000       Uiso       1.00
      C135          C  0.0356200  0.4182700  0.9951099    0.00000       Uiso       1.00
      C136          C  0.0718600  0.3951300  1.0020601    0.00000       Uiso       1.00
      C137          C  0.0953800  0.3971400  1.0934700    0.00000       Uiso       1.00
      C138          C  0.1288500  0.3743100  1.1019000    0.00000       Uiso       1.00
      C139          C  0.1392300  0.3490000  1.0193100    0.00000       Uiso       1.00
      C140          C  0.1155500  0.3469600  0.9277800    0.00000       Uiso       1.00
      C141          C  0.0820100  0.3697500  0.9195500    0.00000       Uiso       1.00
      C142          C  0.1743100  0.3246300  1.0312800    0.00000       Uiso       1.00
      C143          C  0.7184700  0.2238200  0.9588701    0.00000       Uiso       1.00
      C144          C  0.7342500  0.2371700  0.8627900    0.00000       Uiso       1.00
      C145          C  0.7656800  0.2629000  1.0557200    0.00000       Uiso       1.00
      H146          H  0.0990000  0.4654900  0.9863400    0.00000       Uiso       1.00
      H147          H  0.0876200  0.4162100  1.1585100    0.00000       Uiso       1.00
      H148          H  0.1465200  0.3762400  1.1733500    0.00000       Uiso       1.00
      H149          H  0.1227200  0.3275700  0.8630000    0.00000       Uiso       1.00
      H150          H  0.0639200  0.3676300  0.8489100    0.00000       Uiso       1.00
      H151          H  0.1907500  0.3265800  1.1047800    0.00000       Uiso       1.00
      H152          H  0.7222400  0.2273400  0.7877200    0.00000       Uiso       1.00
      H153          H  0.7776300  0.2718500  1.1314800    0.00000       Uiso       1.00
      N154          N  0.1856400  0.3019700  0.9547700    0.00000       Uiso       1.00
      C155          C  0.0358800  0.0409200  0.4939700    0.00000       Uiso       1.00
      C156          C  0.0710400  0.9799500  0.4903600    0.00000       Uiso       1.00
      C157          C  0.0356200  0.9182700  0.4951100    0.00000       Uiso       1.00
      C158          C  0.0718600  0.8951300  0.5020600    0.00000       Uiso       1.00
      C159          C  0.0953800  0.8971400  0.5934700    0.00000       Uiso       1.00
      C160          C  0.1288500  0.8743100  0.6019000    0.00000       Uiso       1.00
      C161          C  0.1392300  0.8490000  0.5193100    0.00000       Uiso       1.00
      C162          C  0.1155500  0.8469600  0.4277800    0.00000       Uiso       1.00
      C163          C  0.0820100  0.8697500  0.4195500    0.00000       Uiso       1.00
      C164          C  0.1743100  0.8246300  0.5312800    0.00000       Uiso       1.00
      C165          C  0.7184700  0.7238200  0.4588700    0.00000       Uiso       1.00
      C166          C  0.7342500  0.7371700  0.3627900    0.00000       Uiso       1.00
      C167          C  0.7656800  0.7629000  0.5557200    0.00000       Uiso       1.00
      H168          H  0.0990000  0.9654900  0.4863400    0.00000       Uiso       1.00
      H169          H  0.0876200  0.9162100  0.6585100    0.00000       Uiso       1.00
      H170          H  0.1465200  0.8762400  0.6733500    0.00000       Uiso       1.00
      H171          H  0.1227200  0.8275700  0.3630000    0.00000       Uiso       1.00
      H172          H  0.0639200  0.8676300  0.3489100    0.00000       Uiso       1.00
      H173          H  0.1907500  0.8265800  0.6047800    0.00000       Uiso       1.00
      H174          H  0.7222400  0.7273400  0.2877200    0.00000       Uiso       1.00
      H175          H  0.7776300  0.7718500  0.6314800    0.00000       Uiso       1.00
      N176          N  0.1856400  0.8019700  0.4547700    0.00000       Uiso       1.00
      C177          C  0.4641200  0.5409200  0.4939700    0.00000       Uiso       1.00
      C178          C  0.4289600  0.4799500  0.4903600    0.00000       Uiso       1.00
      C179          C  0.4643800  0.4182700  0.4951100    0.00000       Uiso       1.00
      C180          C  0.4281400  0.3951300  0.5020600    0.00000       Uiso       1.00
      C181          C  0.4046200  0.3971400  0.5934700    0.00000       Uiso       1.00
      C182          C  0.3711500  0.3743100  0.6019000    0.00000       Uiso       1.00
      C183          C  0.3607700  0.3490000  0.5193100    0.00000       Uiso       1.00
      C184          C  0.3844500  0.3469600  0.4277800    0.00000       Uiso       1.00
      C185          C  0.4179900  0.3697500  0.4195500    0.00000       Uiso       1.00
      C186          C  0.3256900  0.3246300  0.5312800    0.00000       Uiso       1.00
      C187          C  0.7815300  0.2238200  0.4588700    0.00000       Uiso       1.00
      C188          C  0.7657500  0.2371700  0.3627900    0.00000       Uiso       1.00
      C189          C  0.7343200  0.2629000  0.5557200    0.00000       Uiso       1.00
      H190          H  0.4010000  0.4654900  0.4863400    0.00000       Uiso       1.00
      H191          H  0.4123800  0.4162100  0.6585100    0.00000       Uiso       1.00
      H192          H  0.3534800  0.3762400  0.6733500    0.00000       Uiso       1.00
      H193          H  0.3772800  0.3275700  0.3630000    0.00000       Uiso       1.00
      H194          H  0.4360800  0.3676300  0.3489100    0.00000       Uiso       1.00
      H195          H  0.3092500  0.3265800  0.6047800    0.00000       Uiso       1.00
      H196          H  0.7777600  0.2273400  0.2877200    0.00000       Uiso       1.00
      H197          H  0.7223700  0.2718500  0.6314800    0.00000       Uiso       1.00
      N198          N  0.3143600  0.3019700  0.4547700    0.00000       Uiso       1.00
      C199          C  0.4641200  0.0409200  0.9939700    0.00000       Uiso       1.00
      C200          C  0.4289600  0.9799500  0.9903600    0.00000       Uiso       1.00
      C201          C  0.4643800  0.9182700  0.9951099    0.00000       Uiso       1.00
      C202          C  0.4281400  0.8951300  1.0020601    0.00000       Uiso       1.00
      C203          C  0.4046200  0.8971400  1.0934700    0.00000       Uiso       1.00
      C204          C  0.3711500  0.8743100  1.1019000    0.00000       Uiso       1.00
      C205          C  0.3607700  0.8490000  1.0193100    0.00000       Uiso       1.00
      C206          C  0.3844500  0.8469600  0.9277800    0.00000       Uiso       1.00
      C207          C  0.4179900  0.8697500  0.9195500    0.00000       Uiso       1.00
      C208          C  0.3256900  0.8246300  1.0312800    0.00000       Uiso       1.00
      C209          C  0.7815300  0.7238200  0.9588701    0.00000       Uiso       1.00
      C210          C  0.7657500  0.7371700  0.8627900    0.00000       Uiso       1.00
      C211          C  0.7343200  0.7629000  1.0557200    0.00000       Uiso       1.00
      H212          H  0.4010000  0.9654900  0.9863400    0.00000       Uiso       1.00
      H213          H  0.4123800  0.9162100  1.1585100    0.00000       Uiso       1.00
      H214          H  0.3534800  0.8762400  1.1733500    0.00000       Uiso       1.00
      H215          H  0.3772800  0.8275700  0.8630000    0.00000       Uiso       1.00
      H216          H  0.4360800  0.8676300  0.8489100    0.00000       Uiso       1.00
      H217          H  0.3092500  0.8265800  1.1047800    0.00000       Uiso       1.00
      H218          H  0.7777600  0.7273400  0.7877200    0.00000       Uiso       1.00
      H219          H  0.7223700  0.7718500  1.1314800    0.00000       Uiso       1.00
      N220          N  0.3143600  0.8019700  0.9547700    0.00000       Uiso       1.00
      C221          C  0.9641200  0.5409200  0.9939700    0.00000       Uiso       1.00
      C222          C  0.9289600  0.4799500  0.9903600    0.00000       Uiso       1.00
      C223          C  0.9643800  0.4182700  0.9951099    0.00000       Uiso       1.00
      C224          C  0.9281400  0.3951300  1.0020601    0.00000       Uiso       1.00
      C225          C  0.9046200  0.3971400  1.0934700    0.00000       Uiso       1.00
      C226          C  0.8711500  0.3743100  1.1019000    0.00000       Uiso       1.00
      C227          C  0.8607700  0.3490000  1.0193100    0.00000       Uiso       1.00
      C228          C  0.8844500  0.3469600  0.9277800    0.00000       Uiso       1.00
      C229          C  0.9179900  0.3697500  0.9195500    0.00000       Uiso       1.00
      C230          C  0.8256900  0.3246300  1.0312800    0.00000       Uiso       1.00
      C231          C  0.2815300  0.2238200  0.9588701    0.00000       Uiso       1.00
      C232          C  0.2657500  0.2371700  0.8627900    0.00000       Uiso       1.00
      C233          C  0.2343200  0.2629000  1.0557200    0.00000       Uiso       1.00
      H234          H  0.9010000  0.4654900  0.9863400    0.00000       Uiso       1.00
      H235          H  0.9123800  0.4162100  1.1585100    0.00000       Uiso       1.00
      H236          H  0.8534800  0.3762400  1.1733500    0.00000       Uiso       1.00
      H237          H  0.8772800  0.3275700  0.8630000    0.00000       Uiso       1.00
      H238          H  0.9360799  0.3676300  0.8489100    0.00000       Uiso       1.00
      H239          H  0.8092500  0.3265800  1.1047800    0.00000       Uiso       1.00
      H240          H  0.2777600  0.2273400  0.7877200    0.00000       Uiso       1.00
      H241          H  0.2223700  0.2718500  1.1314800    0.00000       Uiso       1.00
      N242          N  0.8143600  0.3019700  0.9547700    0.00000       Uiso       1.00
      C243          C  0.9641200  0.0409200  0.4939700    0.00000       Uiso       1.00
      C244          C  0.9289600  0.9799500  0.4903600    0.00000       Uiso       1.00
      C245          C  0.9643800  0.9182700  0.4951100    0.00000       Uiso       1.00
      C246          C  0.9281400  0.8951300  0.5020600    0.00000       Uiso       1.00
      C247          C  0.9046200  0.8971400  0.5934700    0.00000       Uiso       1.00
      C248          C  0.8711500  0.8743100  0.6019000    0.00000       Uiso       1.00
      C249          C  0.8607700  0.8490000  0.5193100    0.00000       Uiso       1.00
      C250          C  0.8844500  0.8469600  0.4277800    0.00000       Uiso       1.00
      C251          C  0.9179900  0.8697500  0.4195500    0.00000       Uiso       1.00
      C252          C  0.8256900  0.8246300  0.5312800    0.00000       Uiso       1.00
      C253          C  0.2815300  0.7238200  0.4588700    0.00000       Uiso       1.00
      C254          C  0.2657500  0.7371700  0.3627900    0.00000       Uiso       1.00
      C255          C  0.2343200  0.7629000  0.5557200    0.00000       Uiso       1.00
      H256          H  0.9010000  0.9654900  0.4863400    0.00000       Uiso       1.00
      H257          H  0.9123800  0.9162100  0.6585100    0.00000       Uiso       1.00
      H258          H  0.8534800  0.8762400  0.6733500    0.00000       Uiso       1.00
      H259          H  0.8772800  0.8275700  0.3630000    0.00000       Uiso       1.00
      H260          H  0.9360799  0.8676300  0.3489100    0.00000       Uiso       1.00
      H261          H  0.8092500  0.8265800  0.6047800    0.00000       Uiso       1.00
      H262          H  0.2777600  0.7273400  0.2877200    0.00000       Uiso       1.00
      H263          H  0.2223700  0.7718500  0.6314800    0.00000       Uiso       1.00
      N264          N  0.8143600  0.8019700  0.4547700    0.00000       Uiso       1.00
      C265          C  0.5358800  0.4590800  0.4939700    0.00000       Uiso       1.00
      C266          C  0.5710400  0.5200500  0.4903600    0.00000       Uiso       1.00
      C267          C  0.5356200  0.5817300  0.4951100    0.00000       Uiso       1.00
      C268          C  0.5718600  0.6048700  0.5020600    0.00000       Uiso       1.00
      C269          C  0.5953800  0.6028600  0.5934700    0.00000       Uiso       1.00
      C270          C  0.6288500  0.6256900  0.6019000    0.00000       Uiso       1.00
      C271          C  0.6392300  0.6510000  0.5193100    0.00000       Uiso       1.00
      C272          C  0.6155500  0.6530400  0.4277800    0.00000       Uiso       1.00
      C273          C  0.5820100  0.6302500  0.4195500    0.00000       Uiso       1.00
      C274          C  0.6743100  0.6753700  0.5312800    0.00000       Uiso       1.00
      C275          C  0.2184700  0.7761800  0.4588700    0.00000       Uiso       1.00
      C276          C  0.2342500  0.7628300  0.3627900    0.00000       Uiso       1.00
      C277          C  0.2656800  0.7371000  0.5557200    0.00000       Uiso       1.00
      H278          H  0.5990000  0.5345100  0.4863400    0.00000       Uiso       1.00
      H279          H  0.5876200  0.5837900  0.6585100    0.00000       Uiso       1.00
      H280          H  0.6465200  0.6237600  0.6733500    0.00000       Uiso       1.00
      H281          H  0.6227200  0.6724300  0.3630000    0.00000       Uiso       1.00
      H282          H  0.5639200  0.6323700  0.3489100    0.00000       Uiso       1.00
      H283          H  0.6907500  0.6734200  0.6047800    0.00000       Uiso       1.00
      H284          H  0.2222400  0.7726600  0.2877200    0.00000       Uiso       1.00
      H285          H  0.2776300  0.7281500  0.6314800    0.00000       Uiso       1.00
      N286          N  0.6856400  0.6980300  0.4547700    0.00000       Uiso       1.00
      C287          C  0.5358800  0.9590800  0.9939700    0.00000       Uiso       1.00
      C288          C  0.5710400  0.0200500  0.9903600    0.00000       Uiso       1.00
      C289          C  0.5356200  0.0817300  0.9951099    0.00000       Uiso       1.00
      C290          C  0.5718600  0.1048700  1.0020601    0.00000       Uiso       1.00
      C291          C  0.5953800  0.1028600  1.0934700    0.00000       Uiso       1.00
      C292          C  0.6288500  0.1256900  1.1019000    0.00000       Uiso       1.00
      C293          C  0.6392300  0.1510000  1.0193100    0.00000       Uiso       1.00
      C294          C  0.6155500  0.1530400  0.9277800    0.00000       Uiso       1.00
      C295          C  0.5820100  0.1302500  0.9195500    0.00000       Uiso       1.00
      C296          C  0.6743100  0.1753700  1.0312800    0.00000       Uiso       1.00
      C297          C  0.2184700  0.2761800  0.9588701    0.00000       Uiso       1.00
      C298          C  0.2342500  0.2628300  0.8627900    0.00000       Uiso       1.00
      C299          C  0.2656800  0.2371000  1.0557200    0.00000       Uiso       1.00
      H300          H  0.5990000  0.0345100  0.9863400    0.00000       Uiso       1.00
      H301          H  0.5876200  0.0837900  1.1585100    0.00000       Uiso       1.00
      H302          H  0.6465200  0.1237600  1.1733500    0.00000       Uiso       1.00
      H303          H  0.6227200  0.1724300  0.8630000    0.00000       Uiso       1.00
      H304          H  0.5639200  0.1323700  0.8489100    0.00000       Uiso       1.00
      H305          H  0.6907500  0.1734200  1.1047800    0.00000       Uiso       1.00
      H306          H  0.2222400  0.2726600  0.7877200    0.00000       Uiso       1.00
      H307          H  0.2776300  0.2281500  1.1314800    0.00000       Uiso       1.00
      N308          N  0.6856400  0.1980300  0.9547700    0.00000       Uiso       1.00
      C309          C  0.0358800  0.4590800  0.9939700    0.00000       Uiso       1.00
      C310          C  0.0710400  0.5200500  0.9903600    0.00000       Uiso       1.00
      C311          C  0.0356200  0.5817300  0.9951099    0.00000       Uiso       1.00
      C312          C  0.0718600  0.6048700  1.0020601    0.00000       Uiso       1.00
      C313          C  0.0953800  0.6028600  1.0934700    0.00000       Uiso       1.00
      C314          C  0.1288500  0.6256900  1.1019000    0.00000       Uiso       1.00
      C315          C  0.1392300  0.6510000  1.0193100    0.00000       Uiso       1.00
      C316          C  0.1155500  0.6530400  0.9277800    0.00000       Uiso       1.00
      C317          C  0.0820100  0.6302500  0.9195500    0.00000       Uiso       1.00
      C318          C  0.1743100  0.6753700  1.0312800    0.00000       Uiso       1.00
      C319          C  0.7184700  0.7761800  0.9588701    0.00000       Uiso       1.00
      C320          C  0.7342500  0.7628300  0.8627900    0.00000       Uiso       1.00
      C321          C  0.7656800  0.7371000  1.0557200    0.00000       Uiso       1.00
      H322          H  0.0990000  0.5345100  0.9863400    0.00000       Uiso       1.00
      H323          H  0.0876200  0.5837900  1.1585100    0.00000       Uiso       1.00
      H324          H  0.1465200  0.6237600  1.1733500    0.00000       Uiso       1.00
      H325          H  0.1227200  0.6724300  0.8630000    0.00000       Uiso       1.00
      H326          H  0.0639200  0.6323700  0.8489100    0.00000       Uiso       1.00
      H327          H  0.1907500  0.6734200  1.1047800    0.00000       Uiso       1.00
      H328          H  0.7222400  0.7726600  0.7877200    0.00000       Uiso       1.00
      H329          H  0.7776300  0.7281500  1.1314800    0.00000       Uiso       1.00
      N330          N  0.1856400  0.6980300  0.9547700    0.00000       Uiso       1.00
      C331          C  0.0358800  0.9590800  0.4939700    0.00000       Uiso       1.00
      C332          C  0.0710400  0.0200500  0.4903600    0.00000       Uiso       1.00
      C333          C  0.0356200  0.0817300  0.4951100    0.00000       Uiso       1.00
      C334          C  0.0718600  0.1048700  0.5020600    0.00000       Uiso       1.00
      C335          C  0.0953800  0.1028600  0.5934700    0.00000       Uiso       1.00
      C336          C  0.1288500  0.1256900  0.6019000    0.00000       Uiso       1.00
      C337          C  0.1392300  0.1510000  0.5193100    0.00000       Uiso       1.00
      C338          C  0.1155500  0.1530400  0.4277800    0.00000       Uiso       1.00
      C339          C  0.0820100  0.1302500  0.4195500    0.00000       Uiso       1.00
      C340          C  0.1743100  0.1753700  0.5312800    0.00000       Uiso       1.00
      C341          C  0.7184700  0.2761800  0.4588700    0.00000       Uiso       1.00
      C342          C  0.7342500  0.2628300  0.3627900    0.00000       Uiso       1.00
      C343          C  0.7656800  0.2371000  0.5557200    0.00000       Uiso       1.00
      H344          H  0.0990000  0.0345100  0.4863400    0.00000       Uiso       1.00
      H345          H  0.0876200  0.0837900  0.6585100    0.00000       Uiso       1.00
      H346          H  0.1465200  0.1237600  0.6733500    0.00000       Uiso       1.00
      H347          H  0.1227200  0.1724300  0.3630000    0.00000       Uiso       1.00
      H348          H  0.0639200  0.1323700  0.3489100    0.00000       Uiso       1.00
      H349          H  0.1907500  0.1734200  0.6047800    0.00000       Uiso       1.00
      H350          H  0.7222400  0.2726600  0.2877200    0.00000       Uiso       1.00
      H351          H  0.7776300  0.2281500  0.6314800    0.00000       Uiso       1.00
      N352          N  0.1856400  0.1980300  0.4547700    0.00000       Uiso       1.00
      C353          C  0.5000000  0.4795100  0.4940900    0.00000       Uiso       1.00
      C354          C  0.5000000  0.6014500  0.4943300    0.00000       Uiso       1.00
      H355          H  0.5000000  0.6327100  0.4968200    0.00000       Uiso       1.00
      C356          C  0.5000000  0.9795099  0.9940901    0.00000       Uiso       1.00
      C357          C  0.5000000  0.1014500  0.9943300    0.00000       Uiso       1.00
      H358          H  0.5000000  0.1327100  0.9968200    0.00000       Uiso       1.00
      C359          C  0.0000000  0.4795100  0.9940901    0.00000       Uiso       1.00
      C360          C  0.0000000  0.6014500  0.9943300    0.00000       Uiso       1.00
      H361          H  0.0000000  0.6327100  0.9968200    0.00000       Uiso       1.00
      C362          C  0.0000000  0.9795099  0.4940900    0.00000       Uiso       1.00
      C363          C  0.0000000  0.1014500  0.4943300    0.00000       Uiso       1.00
      H364          H  0.0000000  0.1327100  0.4968200    0.00000       Uiso       1.00
      C365          C  0.5000000  0.5204900  0.4940900    0.00000       Uiso       1.00
      C366          C  0.5000000  0.3985500  0.4943300    0.00000       Uiso       1.00
      H367          H  0.5000000  0.3672900  0.4968200    0.00000       Uiso       1.00
      C368          C  0.5000000  0.0204900  0.9940901    0.00000       Uiso       1.00
      C369          C  0.5000000  0.8985500  0.9943300    0.00000       Uiso       1.00
      H370          H  0.5000000  0.8672900  0.9968200    0.00000       Uiso       1.00
      C371          C  0.0000000  0.5204900  0.9940901    0.00000       Uiso       1.00
      C372          C  0.0000000  0.3985500  0.9943300    0.00000       Uiso       1.00
      H373          H  0.0000000  0.3672900  0.9968200    0.00000       Uiso       1.00
      C374          C  0.0000000  0.0204900  0.4940900    0.00000       Uiso       1.00
      C375          C  0.0000000  0.8985500  0.4943300    0.00000       Uiso       1.00
      H376          H  0.0000000  0.8672900  0.4968200    0.00000       Uiso       1.00
