data_iPrTAPB-TFP
_audit_creation_date              0000-00-00
_audit_creation_method            'LanYouShi'
_symmetry_space_group_name_H-M    'P1'
_cell_length_a                    17.7401009
_cell_length_b                    4.1999998
_cell_length_c                    19.0282001
_cell_angle_alpha                 90.0000000
_cell_angle_beta                  114.7657013
_cell_angle_gamma                 90.0000000
loop_
_atom_site_label
_atom_site_type_symbol
_atom_site_fract_x
_atom_site_fract_y
_atom_site_fract_z
_atom_site_U_iso_or_equiv
_atom_site_adp_type
_atom_site_occupancy
        C1          C  0.5307010  0.5000020  0.6066030    0.00000       Uiso       1.00
        C2          C  0.5475760  0.5000020  0.4828960    0.00000       Uiso       1.00
        C3          C  0.4073990  0.5000020  0.4795600    0.00000       Uiso       1.00
        C4          C  0.4442650  0.5000020  0.5620350    0.00000       Uiso       1.00
        C5          C  0.5809180  0.5000020  0.5654530    0.00000       Uiso       1.00
        C6          C  0.4604690  0.5000020  0.4411730    0.00000       Uiso       1.00
        C7          C  0.7934980  0.5000020  0.0717780    0.00000       Uiso       1.00
        C8          C  0.7815150  0.5000020  0.1997090    0.00000       Uiso       1.00
        C9          C  0.9217670  0.5000020  0.1972480    0.00000       Uiso       1.00
       C10          C  0.8802830  0.5000020  0.1151590    0.00000       Uiso       1.00
       C11          C  0.7479700  0.5000020  0.1176890    0.00000       Uiso       1.00
       C12          C  0.8685470  0.5000020  0.2353910    0.00000       Uiso       1.00
       O13          O  0.3986200  0.5000020  0.5973520    0.00000       Uiso       1.00
       O14          O  0.6574850  0.5000020  0.6033720    0.00000       Uiso       1.00
       O15          O  0.4291280  0.5000020  0.3686050    0.00000       Uiso       1.00
       H16          H  0.9153870  0.5000020  0.0855940    0.00000       Uiso       1.00
       H17          H  0.6866580  0.5000020  0.0901750    0.00000       Uiso       1.00
       H18          H  0.8946990  0.5000020  0.2930220    0.00000       Uiso       1.00
       C19          C  0.7544140  0.5000020  0.9880729    0.00000       Uiso       1.00
       C20          C  0.7319830  0.5000020  0.2433320    0.00000       Uiso       1.00
       C21          C  0.0102560  0.5000020  0.2391130    0.00000       Uiso       1.00
       C22          C  0.6673740  0.5000020  0.9449440    0.00000       Uiso       1.00
       C23          C  0.7666700  0.5000020  0.3259550    0.00000       Uiso       1.00
       C24          C  0.0656340  0.5000020  0.2027380    0.00000       Uiso       1.00
       C25          C  0.3200690  0.5000020  0.4405640    0.00000       Uiso       1.00
       C26          C  0.6027350  0.5000020  0.4465630    0.00000       Uiso       1.00
       C27          C  0.5620780  0.5000020  0.6889740    0.00000       Uiso       1.00
       C28          C  0.0503920  0.5000020  0.3216090    0.00000       Uiso       1.00
       C29          C  0.6442600  0.5000020  0.2082600    0.00000       Uiso       1.00
       C30          C  0.7988030  0.5000020  0.9408550    0.00000       Uiso       1.00
       C31          C  0.7602820  0.5000020  0.8592420    0.00000       Uiso       1.00
       C32          C  0.5964090  0.5000020  0.2511590    0.00000       Uiso       1.00
       C33          C  0.1359520  0.5000020  0.3634820    0.00000       Uiso       1.00
       N34          N  0.2729090  0.5000020  0.3629110    0.00000       Uiso       1.00
       N35          N  0.5821560  0.5000020  0.3692570    0.00000       Uiso       1.00
       N36          N  0.6423410  0.5000020  0.7401170    0.00000       Uiso       1.00
       C37          C  0.1519620  0.5000020  0.2446250    0.00000       Uiso       1.00
       C38          C  0.7194560  0.5000020  0.3691130    0.00000       Uiso       1.00
       C39          C  0.6285160  0.5000020  0.8636550    0.00000       Uiso       1.00
       H40          H  0.6279820  0.5000020  0.9706310    0.00000       Uiso       1.00
       H41          H  0.8280770  0.5000020  0.3588700    0.00000       Uiso       1.00
       H42          H  0.0452470  0.5000020  0.1442700    0.00000       Uiso       1.00
       H43          H  0.6636670  0.5000020  0.4818780    0.00000       Uiso       1.00
       H44          H  0.5202430  0.5000020  0.7120250    0.00000       Uiso       1.00
       H45          H  0.0196070  0.5000020  0.3556920    0.00000       Uiso       1.00
       H46          H  0.6114320  0.5000020  0.1499700    0.00000       Uiso       1.00
       H47          H  0.8610880  0.5000020  0.9639331    0.00000       Uiso       1.00
       C48          C  0.6743280  0.5000020  0.8189180    0.00000       Uiso       1.00
       C49          C  0.6330020  0.5000020  0.3324870    0.00000       Uiso       1.00
       C50          C  0.1891510  0.5000020  0.3260630    0.00000       Uiso       1.00
       H51          H  0.2893000  0.5000020  0.4747970    0.00000       Uiso       1.00
       H52          H  0.3020810  0.5000020  0.3302620    0.00000       Uiso       1.00
       H53          H  0.5241610  0.5000020  0.3362620    0.00000       Uiso       1.00
       H54          H  0.6816800  0.5000020  0.7178090    0.00000       Uiso       1.00
       C55          C  0.7651280  0.5000020  0.4580500    0.00000       Uiso       1.00
       C56          C  0.8595209  0.5000020  0.4821170    0.00000       Uiso       1.00
       C57          C  0.7409480  0.1999640  0.4903680    0.00000       Uiso       1.00
       H58          H  0.7470490  0.7212310  0.4821590    0.00000       Uiso       1.00
       H59          H  0.8774390  0.2783310  0.4580490    0.00000       Uiso       1.00
       H60          H  0.8934090  0.4998550  0.5479470    0.00000       Uiso       1.00
       H61          H  0.8775310  0.7216190  0.4580950    0.00000       Uiso       1.00
       H62          H  0.7591320 -0.0212120  0.4663390    0.00000       Uiso       1.00
       H63          H  0.6710530  0.1992220  0.4725160    0.00000       Uiso       1.00
       H64          H  0.7747940  0.1998840  0.5562000    0.00000       Uiso       1.00
       C65          C  0.5010830  0.5000020  0.2077890    0.00000       Uiso       1.00
       C66          C  0.4761990  0.5000020  0.1199330    0.00000       Uiso       1.00
       C67          C  0.4659890  0.8000400  0.2298660    0.00000       Uiso       1.00
       H68          H  0.4749020  0.2787740  0.2242960    0.00000       Uiso       1.00
       H69          H  0.5023330  0.7216740  0.1035750    0.00000       Uiso       1.00
       H70          H  0.4056410  0.5001500  0.0877550    0.00000       Uiso       1.00
       H71          H  0.5022850  0.2783860  0.1034880    0.00000       Uiso       1.00
       H72          H  0.4920840  1.0212170  0.2132610    0.00000       Uiso       1.00
       H73          H  0.4844480  0.8007830  0.2949220    0.00000       Uiso       1.00
       H74          H  0.3954280  0.8001200  0.1977270    0.00000       Uiso       1.00
       C75          C  0.2073910  0.5000020  0.2003320    0.00000       Uiso       1.00
       C76          C  0.1523890  0.5000020  0.1126610    0.00000       Uiso       1.00
       C77          C  0.2623300  0.1999640  0.2218590    0.00000       Uiso       1.00
       H78          H  0.2484100  0.7212310  0.2164290    0.00000       Uiso       1.00
       H79          H  0.1115520  0.2783310  0.0967130    0.00000       Uiso       1.00
       H80          H  0.1933470  0.4998550  0.0798010    0.00000       Uiso       1.00
       H81          H  0.1115220  0.7216190  0.0966260    0.00000       Uiso       1.00
       H82          H  0.2213060 -0.0212120  0.2056640    0.00000       Uiso       1.00
       H83          H  0.3030240  0.1992220  0.2867780    0.00000       Uiso       1.00
       H84          H  0.3033260  0.1998840  0.1890370    0.00000       Uiso       1.00
       C85          C  0.1699900  0.5000020  0.4524050    0.00000       Uiso       1.00
       C86          C  0.0970790  0.5000020  0.4762680    0.00000       Uiso       1.00
       C87          C  0.2231810  0.8000400  0.4848170    0.00000       Uiso       1.00
       H88          H  0.2097110  0.2787740  0.4765840    0.00000       Uiso       1.00
       H89          H  0.0575570  0.7216740  0.4521300    0.00000       Uiso       1.00
       H90          H  0.1221910  0.5001500  0.5420870    0.00000       Uiso       1.00
       H91          H  0.0575050  0.2783860  0.4521760    0.00000       Uiso       1.00
       H92          H  0.1834270  1.0212170  0.4607170    0.00000       Uiso       1.00
       H93          H  0.2771420  0.8007830  0.4671160    0.00000       Uiso       1.00
       H94          H  0.2483370  0.8001200  0.5506380    0.00000       Uiso       1.00
       C95          C  0.5329460  0.5000020  0.8242690    0.00000       Uiso       1.00
       C96          C  0.4988470  0.5000020  0.8865550    0.00000       Uiso       1.00
       C97          C  0.5023110  0.1999640  0.7736980    0.00000       Uiso       1.00
       H98          H  0.5100960  0.7212310  0.7865070    0.00000       Uiso       1.00
       H99          H  0.5216690  0.2783310  0.9241370    0.00000       Uiso       1.00
      H100          H  0.4280980  0.4998550  0.8574760    0.00000       Uiso       1.00
      H101          H  0.5216130  0.7216190  0.9241780    0.00000       Uiso       1.00
      H102          H  0.5250680 -0.0212120  0.8114820    0.00000       Uiso       1.00
      H103          H  0.5275920  0.1992220  0.7276040    0.00000       Uiso       1.00
      H104          H  0.4315650  0.1998840  0.7445790    0.00000       Uiso       1.00
      C105          C  0.8136730  0.5000020  0.8129580    0.00000       Uiso       1.00
      C106          C  0.9062190  0.5000020  0.8693790    0.00000       Uiso       1.00
      C107          C  0.7942540  0.8000400  0.7618670    0.00000       Uiso       1.00
      H108          H  0.7991470  0.2787740  0.7748100    0.00000       Uiso       1.00
      H109          H  0.9205950  0.7216740  0.9073520    0.00000       Uiso       1.00
      H110          H  0.9458160  0.5001500  0.8351900    0.00000       Uiso       1.00
      H111          H  0.9206890  0.2783860  0.9073860    0.00000       Uiso       1.00
      H112          H  0.8088880  1.0212170  0.8000270    0.00000       Uiso       1.00
      H113          H  0.7257220  0.8007830  0.7201180    0.00000       Uiso       1.00
      H114          H  0.8338110  0.8001200  0.7276400    0.00000       Uiso       1.00
