data_iPrTAPB-TFPB
_audit_creation_date              0000-00-00
_audit_creation_method            'LanYouShi'
_symmetry_space_group_name_H-M    'P1'
_cell_length_a                    26.4636002
_cell_length_b                    26.4636002
_cell_length_c                    4.1999998
_cell_angle_alpha                 90.0000000
_cell_angle_beta                  90.0000000
_cell_angle_gamma                 120.0000000
loop_
_atom_site_label
_atom_site_type_symbol
_atom_site_fract_x
_atom_site_fract_y
_atom_site_fract_z
_atom_site_U_iso_or_equiv
_atom_site_adp_type
_atom_site_occupancy
        C1          C  0.7304490  0.3659440  0.5000050    0.00000       Uiso       1.00
        C2          C  0.6340580  0.3645060  0.5000050    0.00000       Uiso       1.00
        C3          C  0.6354960  0.2695530  0.5000050    0.00000       Uiso       1.00
        C4          C  0.6973750  0.3039810  0.5000050    0.00000       Uiso       1.00
        C5          C  0.6960210  0.3933950  0.5000050    0.00000       Uiso       1.00
        C6          C  0.6066070  0.3026270  0.5000050    0.00000       Uiso       1.00
        C7          C  0.2700510  0.6419980  0.5000050    0.00000       Uiso       1.00
        C8          C  0.3580040  0.6280530  0.5000050    0.00000       Uiso       1.00
        C9          C  0.3719480  0.7299511  0.5000050    0.00000       Uiso       1.00
       C10          C  0.3101080  0.7030220  0.5000050    0.00000       Uiso       1.00
       C11          C  0.2969800  0.6070870  0.5000050    0.00000       Uiso       1.00
       C12          C  0.3929150  0.6898940  0.5000050    0.00000       Uiso       1.00
       H13          H  0.7205490  0.2774500  0.5000050    0.00000       Uiso       1.00
       H14          H  0.7225510  0.4431000  0.5000050    0.00000       Uiso       1.00
       H15          H  0.5569020  0.2794530  0.5000050    0.00000       Uiso       1.00
       H16          H  0.2932900  0.7351540  0.5000050    0.00000       Uiso       1.00
       H17          H  0.2648480  0.5581370  0.5000050    0.00000       Uiso       1.00
       H18          H  0.4418650  0.7067120  0.5000050    0.00000       Uiso       1.00
       C19          C  0.2073970  0.6175740  0.5000050    0.00000       Uiso       1.00
       C20          C  0.3824270  0.5898230  0.5000050    0.00000       Uiso       1.00
       C21          C  0.4101790  0.7926049  0.5000050    0.00000       Uiso       1.00
       C22          C  0.7935950  0.3982280  0.5000050    0.00000       Uiso       1.00
       C23          C  0.6017740  0.3953680  0.5000050    0.00000       Uiso       1.00
       C24          C  0.6046340  0.2064070  0.5000050    0.00000       Uiso       1.00
       C25          C  0.1801850  0.6525510  0.5000050    0.00000       Uiso       1.00
       C26          C  0.3474500  0.5276350  0.5000050    0.00000       Uiso       1.00
       C27          C  0.4723670  0.8198170  0.5000050    0.00000       Uiso       1.00
       C28          C  0.8283330  0.3707400  0.5000050    0.00000       Uiso       1.00
       C29          C  0.6292620  0.4575940  0.5000050    0.00000       Uiso       1.00
       C30          C  0.5424080  0.1716690  0.5000050    0.00000       Uiso       1.00
       C31          C  0.6335660  0.1730260  0.5000050    0.00000       Uiso       1.00
       C32          C  0.8269750  0.4605410  0.5000050    0.00000       Uiso       1.00
       C33          C  0.5394610  0.3664350  0.5000050    0.00000       Uiso       1.00
       C34          C  0.3892250  0.8329790  0.5000050    0.00000       Uiso       1.00
       C35          C  0.1670230  0.5562470  0.5000050    0.00000       Uiso       1.00
       C36          C  0.4437550  0.6107770  0.5000050    0.00000       Uiso       1.00
       C37          C  0.1193240  0.6292210  0.5000050    0.00000       Uiso       1.00
       C38          C  0.3707810  0.4901040  0.5000050    0.00000       Uiso       1.00
       C39          C  0.5098980  0.8806780  0.5000050    0.00000       Uiso       1.00
       C40          C  0.8897120  0.4018910  0.5000050    0.00000       Uiso       1.00
       C41          C  0.5981100  0.4878220  0.5000050    0.00000       Uiso       1.00
       C42          C  0.5121800  0.1102890  0.5000050    0.00000       Uiso       1.00
       C43          C  0.6038080  0.1116530  0.5000050    0.00000       Uiso       1.00
       C44          C  0.8883490  0.4921560  0.5000050    0.00000       Uiso       1.00
       C45          C  0.5078460  0.3961940  0.5000050    0.00000       Uiso       1.00
       C46          C  0.4260530  0.8939319  0.5000050    0.00000       Uiso       1.00
       C47          C  0.1060700  0.5321220  0.5000050    0.00000       Uiso       1.00
       C48          C  0.4678800  0.5739490  0.5000050    0.00000       Uiso       1.00
       C49          C  0.0811690  0.5684100  0.5000050    0.00000       Uiso       1.00
       C50          C  0.4315910  0.5127590  0.5000050    0.00000       Uiso       1.00
       C51          C  0.4872420  0.9188330  0.5000050    0.00000       Uiso       1.00
       C52          C  0.9208470  0.4631430  0.5000050    0.00000       Uiso       1.00
       C53          C  0.5368590  0.4577050  0.5000050    0.00000       Uiso       1.00
       C54          C  0.5422960  0.0791540  0.5000050    0.00000       Uiso       1.00
       C55          C  0.0205830  0.5464650  0.5000050    0.00000       Uiso       1.00
       C56          C  0.4535370  0.4741190  0.5000050    0.00000       Uiso       1.00
       C57          C  0.5258830  0.9794191  0.5000050    0.00000       Uiso       1.00
       N58          N  0.9799120  0.4892030  0.5000050    0.00000       Uiso       1.00
       N59          N  0.5107980  0.4907100  0.5000050    0.00000       Uiso       1.00
       N60          N  0.5092920  0.0200890  0.5000050    0.00000       Uiso       1.00
       H61          H  0.2080900  0.7021650  0.5000050    0.00000       Uiso       1.00
       H62          H  0.2978370  0.5059250  0.5000050    0.00000       Uiso       1.00
       H63          H  0.4940760  0.7919120  0.5000050    0.00000       Uiso       1.00
       H64          H  0.8064090  0.3211100  0.5000050    0.00000       Uiso       1.00
       H65          H  0.6788920  0.4853000  0.5000050    0.00000       Uiso       1.00
       H66          H  0.5147020  0.1935930  0.5000050    0.00000       Uiso       1.00
       H67          H  0.6832660  0.1961020  0.5000050    0.00000       Uiso       1.00
       H68          H  0.8038990  0.4871650  0.5000050    0.00000       Uiso       1.00
       H69          H  0.5128370  0.3167350  0.5000050    0.00000       Uiso       1.00
       H70          H  0.3402940  0.8162610  0.5000050    0.00000       Uiso       1.00
       H71          H  0.1837410  0.5240340  0.5000050    0.00000       Uiso       1.00
       H72          H  0.4759680  0.6597080  0.5000050    0.00000       Uiso       1.00
       H73          H  0.1004260  0.6596200  0.5000050    0.00000       Uiso       1.00
       H74          H  0.3403820  0.4408070  0.5000050    0.00000       Uiso       1.00
       H75          H  0.5591950  0.8995750  0.5000050    0.00000       Uiso       1.00
       H76          H  0.4065060  0.9237710  0.5000050    0.00000       Uiso       1.00
       H77          H  0.0762310  0.4827360  0.5000050    0.00000       Uiso       1.00
       H78          H  0.5172660  0.5934960  0.5000050    0.00000       Uiso       1.00
       H79          H  0.0027890  0.5777950  0.5000050    0.00000       Uiso       1.00
       H80          H  0.4222070  0.4249950  0.5000050    0.00000       Uiso       1.00
       H81          H  0.5750070  0.9972130  0.5000050    0.00000       Uiso       1.00
       C82          C  0.6312020  0.5550150  0.5000050    0.00000       Uiso       1.00
       C83          C  0.6973590  0.5779260  0.5000050    0.00000       Uiso       1.00
       C84          C  0.6147920  0.5770820  0.8000430    0.00000       Uiso       1.00
       H85          H  0.6189320  0.5714750  0.2787760    0.00000       Uiso       1.00
       H86          H  0.7095170  0.5614870  0.7216760    0.00000       Uiso       1.00
       H87          H  0.7219100  0.6276660  0.5001520    0.00000       Uiso       1.00
       H88          H  0.7095820  0.5615260  0.2783880    0.00000       Uiso       1.00
       H89          H  0.6271360  0.5606870  1.0212190    0.00000       Uiso       1.00
       H90          H  0.5658040  0.5600950  0.8007850    0.00000       Uiso       1.00
       H91          H  0.6393140  0.6268210  0.8001230    0.00000       Uiso       1.00
       C92          C  0.4406610  0.3615850  0.5000050    0.00000       Uiso       1.00
       C93          C  0.4194090  0.2957570  0.5000050    0.00000       Uiso       1.00
       C94          C  0.4177730  0.3770750  0.1999670    0.00000       Uiso       1.00
       H95          H  0.4235880  0.3731680  0.7212330    0.00000       Uiso       1.00
       H96          H  0.4364570  0.2842830  0.2783330    0.00000       Uiso       1.00
       H97          H  0.3696760  0.2700840  0.4998570    0.00000       Uiso       1.00
       H98          H  0.4364200  0.2842170  0.7216210    0.00000       Uiso       1.00
       H99          H  0.4347830  0.3654160 -0.0212100    0.00000       Uiso       1.00
      H100          H  0.4335320  0.4258200  0.1992240    0.00000       Uiso       1.00
      H101          H  0.3680400  0.3514300  0.1998870    0.00000       Uiso       1.00
      C102          C  0.4449870  0.0761870  0.5000050    0.00000       Uiso       1.00
      C103          C  0.4220760  0.1194340  0.5000050    0.00000       Uiso       1.00
      C104          C  0.4229190  0.0377110  0.8000430    0.00000       Uiso       1.00
      H105          H  0.4285270  0.0474580  0.2787760    0.00000       Uiso       1.00
      H106          H  0.4385140  0.1480310  0.7216760    0.00000       Uiso       1.00
      H107          H  0.3723360  0.0942450  0.5001520    0.00000       Uiso       1.00
      H108          H  0.4384760  0.1480570  0.2783880    0.00000       Uiso       1.00
      H109          H  0.4393150  0.0664500  1.0212190    0.00000       Uiso       1.00
      H110          H  0.4399070  0.0057100  0.8007850    0.00000       Uiso       1.00
      H111          H  0.3731800  0.0124930  0.8001230    0.00000       Uiso       1.00
      C112          C  0.6384170  0.0790770  0.5000050    0.00000       Uiso       1.00
      C113          C  0.7042450  0.1236530  0.5000050    0.00000       Uiso       1.00
      C114          C  0.6229270  0.0406990  0.1999670    0.00000       Uiso       1.00
      H115          H  0.6268330  0.0504200  0.7212330    0.00000       Uiso       1.00
      H116          H  0.7157190  0.1521750  0.2783330    0.00000       Uiso       1.00
      H117          H  0.7299179  0.0995930  0.4998570    0.00000       Uiso       1.00
      H118          H  0.7157840  0.1522030  0.7216210    0.00000       Uiso       1.00
      H119          H  0.6345850  0.0693670 -0.0212100    0.00000       Uiso       1.00
      H120          H  0.5741810  0.0077130  0.1992240    0.00000       Uiso       1.00
      H121          H  0.6485711  0.0166100  0.1998870    0.00000       Uiso       1.00
      C122          C  0.9238140  0.3688000  0.5000050    0.00000       Uiso       1.00
      C123          C  0.8805680  0.3026430  0.5000050    0.00000       Uiso       1.00
      C124          C  0.9622910  0.3852090  0.8000430    0.00000       Uiso       1.00
      H125          H  0.9525440  0.3810700  0.2787760    0.00000       Uiso       1.00
      H126          H  0.8519710  0.2904850  0.7216760    0.00000       Uiso       1.00
      H127          H  0.9057570  0.2780920  0.5001520    0.00000       Uiso       1.00
      H128          H  0.8519440  0.2904190  0.2783880    0.00000       Uiso       1.00
      H129          H  0.9335510  0.3728650  1.0212190    0.00000       Uiso       1.00
      H130          H  0.9942920  0.4341980  0.8007850    0.00000       Uiso       1.00
      H131          H  0.9875081  0.3606880  0.8001230    0.00000       Uiso       1.00
      C132          C  0.9209251  0.5593410  0.5000050    0.00000       Uiso       1.00
      C133          C  0.8763490  0.5805930  0.5000050    0.00000       Uiso       1.00
      C134          C  0.9593030  0.5822290  0.1999670    0.00000       Uiso       1.00
      H135          H  0.9495810  0.5764140  0.7212330    0.00000       Uiso       1.00
      H136          H  0.8478270  0.5635450  0.2783330    0.00000       Uiso       1.00
      H137          H  0.9004080  0.6303260  0.4998570    0.00000       Uiso       1.00
      H138          H  0.8477980  0.5635820  0.7216210    0.00000       Uiso       1.00
      H139          H  0.9306340  0.5652190 -0.0212100    0.00000       Uiso       1.00
      H140          H  0.9922890  0.5664700  0.1992240    0.00000       Uiso       1.00
      H141          H  0.9833910  0.6319620  0.1998870    0.00000       Uiso       1.00
