data_LZU-301
_audit_creation_date              0000-00-00
_audit_creation_method            'LanYouShi'
_symmetry_space_group_name_H-M    'P1'
_cell_length_a                    24.0319996
_cell_length_b                    24.0319996
_cell_length_c                    8.4840002
_cell_angle_alpha                 90.0000000
_cell_angle_beta                  90.0000000
_cell_angle_gamma                 90.0000000
loop_
_atom_site_label
_atom_site_type_symbol
_atom_site_fract_x
_atom_site_fract_y
_atom_site_fract_z
_atom_site_U_iso_or_equiv
_atom_site_adp_type
_atom_site_occupancy
        N1          N  0.9564999  0.1490100  0.5167800    0.00000       Uiso       1.00
        N2          N  0.8674600  0.1838200  0.8462800    0.00000       Uiso       1.00
        C3          C  0.9836200  0.0472800  0.1135100    0.00000       Uiso       1.00
        C4          C  0.9335400  0.0428500  0.1994600    0.00000       Uiso       1.00
        C5          C  0.9226100  0.0776900  0.3271800    0.00000       Uiso       1.00
        C6          C  0.9619200  0.1175900  0.3739900    0.00000       Uiso       1.00
        C7          C  0.0111800  0.1230000  0.2883700    0.00000       Uiso       1.00
        C8          C  0.0223200  0.0882600  0.1604300    0.00000       Uiso       1.00
        C9          C  0.9116200  0.1548600  0.6008000    0.00000       Uiso       1.00
       C10          C  0.9134800  0.1838700  0.7529600    0.00000       Uiso       1.00
       C11          C  0.9622200  0.2097000  0.8061100    0.00000       Uiso       1.00
       C12          C  0.9627600  0.2355800  0.9528500    0.00000       Uiso       1.00
       C13          C  0.9147201  0.2359600  0.0470400    0.00000       Uiso       1.00
       C14          C  0.8669000  0.2088900  0.9899200    0.00000       Uiso       1.00
       H15          H  0.9041600  0.0099900  0.1731300    0.00000       Uiso       1.00
       H16          H  0.8850200  0.0706900  0.3936500    0.00000       Uiso       1.00
       H17          H  0.0422200  0.1527100  0.3261900    0.00000       Uiso       1.00
       H18          H  0.0628200  0.0914100  0.1053900    0.00000       Uiso       1.00
       H19          H  0.8722500  0.1375100  0.5641300    0.00000       Uiso       1.00
       H20          H  0.9993900  0.2100300  0.7341500    0.00000       Uiso       1.00
       H21          H  0.0004300  0.2561700  0.9908099    0.00000       Uiso       1.00
       H22          H  0.8293700  0.2068400  0.0601700    0.00000       Uiso       1.00
       N23          N  0.4565000  0.6490100  0.0167800    0.00000       Uiso       1.00
       N24          N  0.3674600  0.6838199  0.3462800    0.00000       Uiso       1.00
       C25          C  0.4836200  0.5472800  0.6135100    0.00000       Uiso       1.00
       C26          C  0.4335400  0.5428500  0.6994600    0.00000       Uiso       1.00
       C27          C  0.4226100  0.5776900  0.8271800    0.00000       Uiso       1.00
       C28          C  0.4619200  0.6175900  0.8739900    0.00000       Uiso       1.00
       C29          C  0.5111800  0.6230000  0.7883700    0.00000       Uiso       1.00
       C30          C  0.5223200  0.5882600  0.6604300    0.00000       Uiso       1.00
       C31          C  0.4116200  0.6548600  0.1008000    0.00000       Uiso       1.00
       C32          C  0.4134800  0.6838701  0.2529600    0.00000       Uiso       1.00
       C33          C  0.4622200  0.7097000  0.3061100    0.00000       Uiso       1.00
       C34          C  0.4627600  0.7355801  0.4528500    0.00000       Uiso       1.00
       C35          C  0.4147200  0.7359600  0.5470400    0.00000       Uiso       1.00
       C36          C  0.3669000  0.7088900  0.4899200    0.00000       Uiso       1.00
       H37          H  0.4041600  0.5099900  0.6731300    0.00000       Uiso       1.00
       H38          H  0.3850200  0.5706900  0.8936500    0.00000       Uiso       1.00
       H39          H  0.5422200  0.6527100  0.8261900    0.00000       Uiso       1.00
       H40          H  0.5628200  0.5914100  0.6053900    0.00000       Uiso       1.00
       H41          H  0.3722500  0.6375100  0.0641300    0.00000       Uiso       1.00
       H42          H  0.4993900  0.7100300  0.2341500    0.00000       Uiso       1.00
       H43          H  0.5004300  0.7561700  0.4908100    0.00000       Uiso       1.00
       H44          H  0.3293700  0.7068400  0.5601700    0.00000       Uiso       1.00
       N45          N  0.0435000  0.8509900  0.5167800    0.00000       Uiso       1.00
       N46          N  0.1325400  0.8161800  0.8462800    0.00000       Uiso       1.00
       C47          C  0.0163800  0.9527200  0.1135100    0.00000       Uiso       1.00
       C48          C  0.0664600  0.9571500  0.1994600    0.00000       Uiso       1.00
       C49          C  0.0773900  0.9223100  0.3271800    0.00000       Uiso       1.00
       C50          C  0.0380800  0.8824099  0.3739900    0.00000       Uiso       1.00
       C51          C  0.9888200  0.8770000  0.2883700    0.00000       Uiso       1.00
       C52          C  0.9776800  0.9117401  0.1604300    0.00000       Uiso       1.00
       C53          C  0.0883800  0.8451400  0.6008000    0.00000       Uiso       1.00
       C54          C  0.0865200  0.8161300  0.7529600    0.00000       Uiso       1.00
       C55          C  0.0377800  0.7903000  0.8061100    0.00000       Uiso       1.00
       C56          C  0.0372400  0.7644200  0.9528500    0.00000       Uiso       1.00
       C57          C  0.0852800  0.7640400  0.0470400    0.00000       Uiso       1.00
       C58          C  0.1331000  0.7911100  0.9899200    0.00000       Uiso       1.00
       H59          H  0.0958400  0.9900100  0.1731300    0.00000       Uiso       1.00
       H60          H  0.1149800  0.9293100  0.3936500    0.00000       Uiso       1.00
       H61          H  0.9577800  0.8472900  0.3261900    0.00000       Uiso       1.00
       H62          H  0.9371800  0.9085900  0.1053900    0.00000       Uiso       1.00
       H63          H  0.1277500  0.8624900  0.5641300    0.00000       Uiso       1.00
       H64          H  0.0006100  0.7899700  0.7341500    0.00000       Uiso       1.00
       H65          H  0.9995700  0.7438300  0.9908099    0.00000       Uiso       1.00
       H66          H  0.1706300  0.7931601  0.0601700    0.00000       Uiso       1.00
       N67          N  0.5435000  0.3509900  0.0167800    0.00000       Uiso       1.00
       N68          N  0.6325400  0.3161800  0.3462800    0.00000       Uiso       1.00
       C69          C  0.5163800  0.4527200  0.6135100    0.00000       Uiso       1.00
       C70          C  0.5664600  0.4571500  0.6994600    0.00000       Uiso       1.00
       C71          C  0.5773900  0.4223100  0.8271800    0.00000       Uiso       1.00
       C72          C  0.5380800  0.3824100  0.8739900    0.00000       Uiso       1.00
       C73          C  0.4888200  0.3770000  0.7883700    0.00000       Uiso       1.00
       C74          C  0.4776800  0.4117400  0.6604300    0.00000       Uiso       1.00
       C75          C  0.5883800  0.3451400  0.1008000    0.00000       Uiso       1.00
       C76          C  0.5865200  0.3161300  0.2529600    0.00000       Uiso       1.00
       C77          C  0.5377800  0.2903000  0.3061100    0.00000       Uiso       1.00
       C78          C  0.5372400  0.2644200  0.4528500    0.00000       Uiso       1.00
       C79          C  0.5852800  0.2640400  0.5470400    0.00000       Uiso       1.00
       C80          C  0.6331000  0.2911100  0.4899200    0.00000       Uiso       1.00
       H81          H  0.5958400  0.4900100  0.6731300    0.00000       Uiso       1.00
       H82          H  0.6149800  0.4293100  0.8936500    0.00000       Uiso       1.00
       H83          H  0.4577800  0.3472900  0.8261900    0.00000       Uiso       1.00
       H84          H  0.4371800  0.4085900  0.6053900    0.00000       Uiso       1.00
       H85          H  0.6277500  0.3624900  0.0641300    0.00000       Uiso       1.00
       H86          H  0.5006100  0.2899700  0.2341500    0.00000       Uiso       1.00
       H87          H  0.4995700  0.2438300  0.4908100    0.00000       Uiso       1.00
       H88          H  0.6706300  0.2931600  0.5601700    0.00000       Uiso       1.00
       N89          N  0.1490100  0.0435000  0.4832200    0.00000       Uiso       1.00
       N90          N  0.1838200  0.1325400  0.1537200    0.00000       Uiso       1.00
       C91          C  0.0472800  0.0163800  0.8864900    0.00000       Uiso       1.00
       C92          C  0.0428500  0.0664600  0.8005400    0.00000       Uiso       1.00
       C93          C  0.0776900  0.0773900  0.6728200    0.00000       Uiso       1.00
       C94          C  0.1175900  0.0380800  0.6260100    0.00000       Uiso       1.00
       C95          C  0.1230000  0.9888200  0.7116300    0.00000       Uiso       1.00
       C96          C  0.0882600  0.9776800  0.8395700    0.00000       Uiso       1.00
       C97          C  0.1548600  0.0883800  0.3992000    0.00000       Uiso       1.00
       C98          C  0.1838700  0.0865200  0.2470400    0.00000       Uiso       1.00
       C99          C  0.2097000  0.0377800  0.1938900    0.00000       Uiso       1.00
      C100          C  0.2355800  0.0372400  0.0471500    0.00000       Uiso       1.00
      C101          C  0.2359600  0.0852800  0.9529601    0.00000       Uiso       1.00
      C102          C  0.2088900  0.1331000  0.0100800    0.00000       Uiso       1.00
      H103          H  0.0099900  0.0958400  0.8268700    0.00000       Uiso       1.00
      H104          H  0.0706900  0.1149800  0.6063500    0.00000       Uiso       1.00
      H105          H  0.1527100  0.9577800  0.6738100    0.00000       Uiso       1.00
      H106          H  0.0914100  0.9371800  0.8946100    0.00000       Uiso       1.00
      H107          H  0.1375100  0.1277500  0.4358700    0.00000       Uiso       1.00
      H108          H  0.2100300  0.0006100  0.2658500    0.00000       Uiso       1.00
      H109          H  0.2561700  0.9995700  0.0091900    0.00000       Uiso       1.00
      H110          H  0.2068400  0.1706300  0.9398300    0.00000       Uiso       1.00
      N111          N  0.6490100  0.5435000  0.9832200    0.00000       Uiso       1.00
      N112          N  0.6838199  0.6325400  0.6537200    0.00000       Uiso       1.00
      C113          C  0.5472800  0.5163800  0.3864900    0.00000       Uiso       1.00
      C114          C  0.5428500  0.5664600  0.3005400    0.00000       Uiso       1.00
      C115          C  0.5776900  0.5773900  0.1728200    0.00000       Uiso       1.00
      C116          C  0.6175900  0.5380800  0.1260100    0.00000       Uiso       1.00
      C117          C  0.6230000  0.4888200  0.2116300    0.00000       Uiso       1.00
      C118          C  0.5882600  0.4776800  0.3395700    0.00000       Uiso       1.00
      C119          C  0.6548600  0.5883800  0.8992000    0.00000       Uiso       1.00
      C120          C  0.6838701  0.5865200  0.7470400    0.00000       Uiso       1.00
      C121          C  0.7097000  0.5377800  0.6938900    0.00000       Uiso       1.00
      C122          C  0.7355801  0.5372400  0.5471500    0.00000       Uiso       1.00
      C123          C  0.7359600  0.5852800  0.4529600    0.00000       Uiso       1.00
      C124          C  0.7088900  0.6331000  0.5100800    0.00000       Uiso       1.00
      H125          H  0.5099900  0.5958400  0.3268700    0.00000       Uiso       1.00
      H126          H  0.5706900  0.6149800  0.1063500    0.00000       Uiso       1.00
      H127          H  0.6527100  0.4577800  0.1738100    0.00000       Uiso       1.00
      H128          H  0.5914100  0.4371800  0.3946100    0.00000       Uiso       1.00
      H129          H  0.6375100  0.6277500  0.9358700    0.00000       Uiso       1.00
      H130          H  0.7100300  0.5006100  0.7658500    0.00000       Uiso       1.00
      H131          H  0.7561700  0.4995700  0.5091900    0.00000       Uiso       1.00
      H132          H  0.7068400  0.6706300  0.4398300    0.00000       Uiso       1.00
      N133          N  0.8509900  0.9564999  0.4832200    0.00000       Uiso       1.00
      N134          N  0.8161800  0.8674600  0.1537200    0.00000       Uiso       1.00
      C135          C  0.9527200  0.9836200  0.8864900    0.00000       Uiso       1.00
      C136          C  0.9571500  0.9335400  0.8005400    0.00000       Uiso       1.00
      C137          C  0.9223100  0.9226100  0.6728200    0.00000       Uiso       1.00
      C138          C  0.8824099  0.9619200  0.6260100    0.00000       Uiso       1.00
      C139          C  0.8770000  0.0111800  0.7116300    0.00000       Uiso       1.00
      C140          C  0.9117401  0.0223200  0.8395700    0.00000       Uiso       1.00
      C141          C  0.8451400  0.9116200  0.3992000    0.00000       Uiso       1.00
      C142          C  0.8161300  0.9134800  0.2470400    0.00000       Uiso       1.00
      C143          C  0.7903000  0.9622200  0.1938900    0.00000       Uiso       1.00
      C144          C  0.7644200  0.9627600  0.0471500    0.00000       Uiso       1.00
      C145          C  0.7640400  0.9147201  0.9529601    0.00000       Uiso       1.00
      C146          C  0.7911100  0.8669000  0.0100800    0.00000       Uiso       1.00
      H147          H  0.9900100  0.9041600  0.8268700    0.00000       Uiso       1.00
      H148          H  0.9293100  0.8850200  0.6063500    0.00000       Uiso       1.00
      H149          H  0.8472900  0.0422200  0.6738100    0.00000       Uiso       1.00
      H150          H  0.9085900  0.0628200  0.8946100    0.00000       Uiso       1.00
      H151          H  0.8624900  0.8722500  0.4358700    0.00000       Uiso       1.00
      H152          H  0.7899700  0.9993900  0.2658500    0.00000       Uiso       1.00
      H153          H  0.7438300  0.0004300  0.0091900    0.00000       Uiso       1.00
      H154          H  0.7931601  0.8293700  0.9398300    0.00000       Uiso       1.00
      N155          N  0.3509900  0.4565000  0.9832200    0.00000       Uiso       1.00
      N156          N  0.3161800  0.3674600  0.6537200    0.00000       Uiso       1.00
      C157          C  0.4527200  0.4836200  0.3864900    0.00000       Uiso       1.00
      C158          C  0.4571500  0.4335400  0.3005400    0.00000       Uiso       1.00
      C159          C  0.4223100  0.4226100  0.1728200    0.00000       Uiso       1.00
      C160          C  0.3824100  0.4619200  0.1260100    0.00000       Uiso       1.00
      C161          C  0.3770000  0.5111800  0.2116300    0.00000       Uiso       1.00
      C162          C  0.4117400  0.5223200  0.3395700    0.00000       Uiso       1.00
      C163          C  0.3451400  0.4116200  0.8992000    0.00000       Uiso       1.00
      C164          C  0.3161300  0.4134800  0.7470400    0.00000       Uiso       1.00
      C165          C  0.2903000  0.4622200  0.6938900    0.00000       Uiso       1.00
      C166          C  0.2644200  0.4627600  0.5471500    0.00000       Uiso       1.00
      C167          C  0.2640400  0.4147200  0.4529600    0.00000       Uiso       1.00
      C168          C  0.2911100  0.3669000  0.5100800    0.00000       Uiso       1.00
      H169          H  0.4900100  0.4041600  0.3268700    0.00000       Uiso       1.00
      H170          H  0.4293100  0.3850200  0.1063500    0.00000       Uiso       1.00
      H171          H  0.3472900  0.5422200  0.1738100    0.00000       Uiso       1.00
      H172          H  0.4085900  0.5628200  0.3946100    0.00000       Uiso       1.00
      H173          H  0.3624900  0.3722500  0.9358700    0.00000       Uiso       1.00
      H174          H  0.2899700  0.4993900  0.7658500    0.00000       Uiso       1.00
      H175          H  0.2438300  0.5004300  0.5091900    0.00000       Uiso       1.00
      H176          H  0.2931600  0.3293700  0.4398300    0.00000       Uiso       1.00
      N177          N  0.5435000  0.1490100  0.2332200    0.00000       Uiso       1.00
      N178          N  0.6325400  0.1838200  0.9037200    0.00000       Uiso       1.00
      C179          C  0.5163800  0.0472800  0.6364900    0.00000       Uiso       1.00
      C180          C  0.5664600  0.0428500  0.5505400    0.00000       Uiso       1.00
      C181          C  0.5773900  0.0776900  0.4228200    0.00000       Uiso       1.00
      C182          C  0.5380800  0.1175900  0.3760100    0.00000       Uiso       1.00
      C183          C  0.4888200  0.1230000  0.4616300    0.00000       Uiso       1.00
      C184          C  0.4776800  0.0882600  0.5895700    0.00000       Uiso       1.00
      C185          C  0.5883800  0.1548600  0.1492000    0.00000       Uiso       1.00
      C186          C  0.5865200  0.1838700  0.9970400    0.00000       Uiso       1.00
      C187          C  0.5377800  0.2097000  0.9438900    0.00000       Uiso       1.00
      C188          C  0.5372400  0.2355800  0.7971500    0.00000       Uiso       1.00
      C189          C  0.5852800  0.2359600  0.7029600    0.00000       Uiso       1.00
      C190          C  0.6331000  0.2088900  0.7600800    0.00000       Uiso       1.00
      H191          H  0.5958400  0.0099900  0.5768700    0.00000       Uiso       1.00
      H192          H  0.6149800  0.0706900  0.3563500    0.00000       Uiso       1.00
      H193          H  0.4577800  0.1527100  0.4238100    0.00000       Uiso       1.00
      H194          H  0.4371800  0.0914100  0.6446100    0.00000       Uiso       1.00
      H195          H  0.6277500  0.1375100  0.1858700    0.00000       Uiso       1.00
      H196          H  0.5006100  0.2100300  0.0158500    0.00000       Uiso       1.00
      H197          H  0.4995700  0.2561700  0.7591900    0.00000       Uiso       1.00
      H198          H  0.6706300  0.2068400  0.6898300    0.00000       Uiso       1.00
      N199          N  0.0435000  0.6490100  0.7332200    0.00000       Uiso       1.00
      N200          N  0.1325400  0.6838199  0.4037200    0.00000       Uiso       1.00
      C201          C  0.0163800  0.5472800  0.1364900    0.00000       Uiso       1.00
      C202          C  0.0664600  0.5428500  0.0505400    0.00000       Uiso       1.00
      C203          C  0.0773900  0.5776900  0.9228200    0.00000       Uiso       1.00
      C204          C  0.0380800  0.6175900  0.8760100    0.00000       Uiso       1.00
      C205          C  0.9888200  0.6230000  0.9616300    0.00000       Uiso       1.00
      C206          C  0.9776800  0.5882600  0.0895700    0.00000       Uiso       1.00
      C207          C  0.0883800  0.6548600  0.6492000    0.00000       Uiso       1.00
      C208          C  0.0865200  0.6838701  0.4970400    0.00000       Uiso       1.00
      C209          C  0.0377800  0.7097000  0.4438900    0.00000       Uiso       1.00
      C210          C  0.0372400  0.7355801  0.2971500    0.00000       Uiso       1.00
      C211          C  0.0852800  0.7359600  0.2029600    0.00000       Uiso       1.00
      C212          C  0.1331000  0.7088900  0.2600800    0.00000       Uiso       1.00
      H213          H  0.0958400  0.5099900  0.0768700    0.00000       Uiso       1.00
      H214          H  0.1149800  0.5706900  0.8563500    0.00000       Uiso       1.00
      H215          H  0.9577800  0.6527100  0.9238100    0.00000       Uiso       1.00
      H216          H  0.9371800  0.5914100  0.1446100    0.00000       Uiso       1.00
      H217          H  0.1277500  0.6375100  0.6858700    0.00000       Uiso       1.00
      H218          H  0.0006100  0.7100300  0.5158500    0.00000       Uiso       1.00
      H219          H  0.9995700  0.7561700  0.2591900    0.00000       Uiso       1.00
      H220          H  0.1706300  0.7068400  0.1898300    0.00000       Uiso       1.00
      N221          N  0.4565000  0.8509900  0.2332200    0.00000       Uiso       1.00
      N222          N  0.3674600  0.8161800  0.9037200    0.00000       Uiso       1.00
      C223          C  0.4836200  0.9527200  0.6364900    0.00000       Uiso       1.00
      C224          C  0.4335400  0.9571500  0.5505400    0.00000       Uiso       1.00
      C225          C  0.4226100  0.9223100  0.4228200    0.00000       Uiso       1.00
      C226          C  0.4619200  0.8824099  0.3760100    0.00000       Uiso       1.00
      C227          C  0.5111800  0.8770000  0.4616300    0.00000       Uiso       1.00
      C228          C  0.5223200  0.9117401  0.5895700    0.00000       Uiso       1.00
      C229          C  0.4116200  0.8451400  0.1492000    0.00000       Uiso       1.00
      C230          C  0.4134800  0.8161300  0.9970400    0.00000       Uiso       1.00
      C231          C  0.4622200  0.7903000  0.9438900    0.00000       Uiso       1.00
      C232          C  0.4627600  0.7644200  0.7971500    0.00000       Uiso       1.00
      C233          C  0.4147200  0.7640400  0.7029600    0.00000       Uiso       1.00
      C234          C  0.3669000  0.7911100  0.7600800    0.00000       Uiso       1.00
      H235          H  0.4041600  0.9900100  0.5768700    0.00000       Uiso       1.00
      H236          H  0.3850200  0.9293100  0.3563500    0.00000       Uiso       1.00
      H237          H  0.5422200  0.8472900  0.4238100    0.00000       Uiso       1.00
      H238          H  0.5628200  0.9085900  0.6446100    0.00000       Uiso       1.00
      H239          H  0.3722500  0.8624900  0.1858700    0.00000       Uiso       1.00
      H240          H  0.4993900  0.7899700  0.0158500    0.00000       Uiso       1.00
      H241          H  0.5004300  0.7438300  0.7591900    0.00000       Uiso       1.00
      H242          H  0.3293700  0.7931601  0.6898300    0.00000       Uiso       1.00
      N243          N  0.9564999  0.3509900  0.7332200    0.00000       Uiso       1.00
      N244          N  0.8674600  0.3161800  0.4037200    0.00000       Uiso       1.00
      C245          C  0.9836200  0.4527200  0.1364900    0.00000       Uiso       1.00
      C246          C  0.9335400  0.4571500  0.0505400    0.00000       Uiso       1.00
      C247          C  0.9226100  0.4223100  0.9228200    0.00000       Uiso       1.00
      C248          C  0.9619200  0.3824100  0.8760100    0.00000       Uiso       1.00
      C249          C  0.0111800  0.3770000  0.9616300    0.00000       Uiso       1.00
      C250          C  0.0223200  0.4117400  0.0895700    0.00000       Uiso       1.00
      C251          C  0.9116200  0.3451400  0.6492000    0.00000       Uiso       1.00
      C252          C  0.9134800  0.3161300  0.4970400    0.00000       Uiso       1.00
      C253          C  0.9622200  0.2903000  0.4438900    0.00000       Uiso       1.00
      C254          C  0.9627600  0.2644200  0.2971500    0.00000       Uiso       1.00
      C255          C  0.9147201  0.2640400  0.2029600    0.00000       Uiso       1.00
      C256          C  0.8669000  0.2911100  0.2600800    0.00000       Uiso       1.00
      H257          H  0.9041600  0.4900100  0.0768700    0.00000       Uiso       1.00
      H258          H  0.8850200  0.4293100  0.8563500    0.00000       Uiso       1.00
      H259          H  0.0422200  0.3472900  0.9238100    0.00000       Uiso       1.00
      H260          H  0.0628200  0.4085900  0.1446100    0.00000       Uiso       1.00
      H261          H  0.8722500  0.3624900  0.6858700    0.00000       Uiso       1.00
      H262          H  0.9993900  0.2899700  0.5158500    0.00000       Uiso       1.00
      H263          H  0.0004300  0.2438300  0.2591900    0.00000       Uiso       1.00
      H264          H  0.8293700  0.2931600  0.1898300    0.00000       Uiso       1.00
      N265          N  0.3509900  0.0435000  0.2667800    0.00000       Uiso       1.00
      N266          N  0.3161800  0.1325400  0.5962800    0.00000       Uiso       1.00
      C267          C  0.4527200  0.0163800  0.8635100    0.00000       Uiso       1.00
      C268          C  0.4571500  0.0664600  0.9494600    0.00000       Uiso       1.00
      C269          C  0.4223100  0.0773900  0.0771800    0.00000       Uiso       1.00
      C270          C  0.3824100  0.0380800  0.1239900    0.00000       Uiso       1.00
      C271          C  0.3770000  0.9888200  0.0383700    0.00000       Uiso       1.00
      C272          C  0.4117400  0.9776800  0.9104300    0.00000       Uiso       1.00
      C273          C  0.3451400  0.0883800  0.3508000    0.00000       Uiso       1.00
      C274          C  0.3161300  0.0865200  0.5029600    0.00000       Uiso       1.00
      C275          C  0.2903000  0.0377800  0.5561100    0.00000       Uiso       1.00
      C276          C  0.2644200  0.0372400  0.7028500    0.00000       Uiso       1.00
      C277          C  0.2640400  0.0852800  0.7970400    0.00000       Uiso       1.00
      C278          C  0.2911100  0.1331000  0.7399200    0.00000       Uiso       1.00
      H279          H  0.4900100  0.0958400  0.9231300    0.00000       Uiso       1.00
      H280          H  0.4293100  0.1149800  0.1436500    0.00000       Uiso       1.00
      H281          H  0.3472900  0.9577800  0.0761900    0.00000       Uiso       1.00
      H282          H  0.4085900  0.9371800  0.8553900    0.00000       Uiso       1.00
      H283          H  0.3624900  0.1277500  0.3141300    0.00000       Uiso       1.00
      H284          H  0.2899700  0.0006100  0.4841500    0.00000       Uiso       1.00
      H285          H  0.2438300  0.9995700  0.7408100    0.00000       Uiso       1.00
      H286          H  0.2931600  0.1706300  0.8101700    0.00000       Uiso       1.00
      N287          N  0.8509900  0.5435000  0.7667800    0.00000       Uiso       1.00
      N288          N  0.8161800  0.6325400  0.0962800    0.00000       Uiso       1.00
      C289          C  0.9527200  0.5163800  0.3635100    0.00000       Uiso       1.00
      C290          C  0.9571500  0.5664600  0.4494600    0.00000       Uiso       1.00
      C291          C  0.9223100  0.5773900  0.5771800    0.00000       Uiso       1.00
      C292          C  0.8824099  0.5380800  0.6239900    0.00000       Uiso       1.00
      C293          C  0.8770000  0.4888200  0.5383700    0.00000       Uiso       1.00
      C294          C  0.9117401  0.4776800  0.4104300    0.00000       Uiso       1.00
      C295          C  0.8451400  0.5883800  0.8508000    0.00000       Uiso       1.00
      C296          C  0.8161300  0.5865200  0.0029600    0.00000       Uiso       1.00
      C297          C  0.7903000  0.5377800  0.0561100    0.00000       Uiso       1.00
      C298          C  0.7644200  0.5372400  0.2028500    0.00000       Uiso       1.00
      C299          C  0.7640400  0.5852800  0.2970400    0.00000       Uiso       1.00
      C300          C  0.7911100  0.6331000  0.2399200    0.00000       Uiso       1.00
      H301          H  0.9900100  0.5958400  0.4231300    0.00000       Uiso       1.00
      H302          H  0.9293100  0.6149800  0.6436500    0.00000       Uiso       1.00
      H303          H  0.8472900  0.4577800  0.5761900    0.00000       Uiso       1.00
      H304          H  0.9085900  0.4371800  0.3553900    0.00000       Uiso       1.00
      H305          H  0.8624900  0.6277500  0.8141300    0.00000       Uiso       1.00
      H306          H  0.7899700  0.5006100  0.9841499    0.00000       Uiso       1.00
      H307          H  0.7438300  0.4995700  0.2408100    0.00000       Uiso       1.00
      H308          H  0.7931601  0.6706300  0.3101700    0.00000       Uiso       1.00
      N309          N  0.6490100  0.9564999  0.2667800    0.00000       Uiso       1.00
      N310          N  0.6838199  0.8674600  0.5962800    0.00000       Uiso       1.00
      C311          C  0.5472800  0.9836200  0.8635100    0.00000       Uiso       1.00
      C312          C  0.5428500  0.9335400  0.9494600    0.00000       Uiso       1.00
      C313          C  0.5776900  0.9226100  0.0771800    0.00000       Uiso       1.00
      C314          C  0.6175900  0.9619200  0.1239900    0.00000       Uiso       1.00
      C315          C  0.6230000  0.0111800  0.0383700    0.00000       Uiso       1.00
      C316          C  0.5882600  0.0223200  0.9104300    0.00000       Uiso       1.00
      C317          C  0.6548600  0.9116200  0.3508000    0.00000       Uiso       1.00
      C318          C  0.6838701  0.9134800  0.5029600    0.00000       Uiso       1.00
      C319          C  0.7097000  0.9622200  0.5561100    0.00000       Uiso       1.00
      C320          C  0.7355801  0.9627600  0.7028500    0.00000       Uiso       1.00
      C321          C  0.7359600  0.9147201  0.7970400    0.00000       Uiso       1.00
      C322          C  0.7088900  0.8669000  0.7399200    0.00000       Uiso       1.00
      H323          H  0.5099900  0.9041600  0.9231300    0.00000       Uiso       1.00
      H324          H  0.5706900  0.8850200  0.1436500    0.00000       Uiso       1.00
      H325          H  0.6527100  0.0422200  0.0761900    0.00000       Uiso       1.00
      H326          H  0.5914100  0.0628200  0.8553900    0.00000       Uiso       1.00
      H327          H  0.6375100  0.8722500  0.3141300    0.00000       Uiso       1.00
      H328          H  0.7100300  0.9993900  0.4841500    0.00000       Uiso       1.00
      H329          H  0.7561700  0.0004300  0.7408100    0.00000       Uiso       1.00
      H330          H  0.7068400  0.8293700  0.8101700    0.00000       Uiso       1.00
      N331          N  0.1490100  0.4565000  0.7667800    0.00000       Uiso       1.00
      N332          N  0.1838200  0.3674600  0.0962800    0.00000       Uiso       1.00
      C333          C  0.0472800  0.4836200  0.3635100    0.00000       Uiso       1.00
      C334          C  0.0428500  0.4335400  0.4494600    0.00000       Uiso       1.00
      C335          C  0.0776900  0.4226100  0.5771800    0.00000       Uiso       1.00
      C336          C  0.1175900  0.4619200  0.6239900    0.00000       Uiso       1.00
      C337          C  0.1230000  0.5111800  0.5383700    0.00000       Uiso       1.00
      C338          C  0.0882600  0.5223200  0.4104300    0.00000       Uiso       1.00
      C339          C  0.1548600  0.4116200  0.8508000    0.00000       Uiso       1.00
      C340          C  0.1838700  0.4134800  0.0029600    0.00000       Uiso       1.00
      C341          C  0.2097000  0.4622200  0.0561100    0.00000       Uiso       1.00
      C342          C  0.2355800  0.4627600  0.2028500    0.00000       Uiso       1.00
      C343          C  0.2359600  0.4147200  0.2970400    0.00000       Uiso       1.00
      C344          C  0.2088900  0.3669000  0.2399200    0.00000       Uiso       1.00
      H345          H  0.0099900  0.4041600  0.4231300    0.00000       Uiso       1.00
      H346          H  0.0706900  0.3850200  0.6436500    0.00000       Uiso       1.00
      H347          H  0.1527100  0.5422200  0.5761900    0.00000       Uiso       1.00
      H348          H  0.0914100  0.5628200  0.3553900    0.00000       Uiso       1.00
      H349          H  0.1375100  0.3722500  0.8141300    0.00000       Uiso       1.00
      H350          H  0.2100300  0.4993900  0.9841499    0.00000       Uiso       1.00
      H351          H  0.2561700  0.5004300  0.2408100    0.00000       Uiso       1.00
      H352          H  0.2068400  0.3293700  0.3101700    0.00000       Uiso       1.00
      C353          C  0.0000000  0.0000000  0.0000000    0.00000       Uiso       1.00
      C354          C  0.5000000  0.5000000  0.5000000    0.00000       Uiso       1.00
      C355          C  0.5000000  0.0000000  0.7500000    0.00000       Uiso       1.00
      C356          C  0.0000000  0.5000000  0.2500000    0.00000       Uiso       1.00
