data_LZU-301-sol
_audit_creation_date              0000-00-00
_audit_creation_method            'LanYouShi'
_symmetry_space_group_name_H-M    'P1'
_cell_length_a                    27.8659992
_cell_length_b                    30.3409996
_cell_length_c                    7.8410001
_cell_angle_alpha                 90.0000000
_cell_angle_beta                  90.0000000
_cell_angle_gamma                 90.0000000
loop_
_atom_site_label
_atom_site_type_symbol
_atom_site_fract_x
_atom_site_fract_y
_atom_site_fract_z
_atom_site_U_iso_or_equiv
_atom_site_adp_type
_atom_site_occupancy
        C1          C  0.4363600  0.7101800  0.7814400    0.00000       Uiso       1.00
        H2          H  0.4515100  0.6788000  0.7453200    0.00000       Uiso       1.00
        C3          C  0.3959500  0.7102401  0.8864300    0.00000       Uiso       1.00
        H4          H  0.3814200  0.6794600  0.9332800    0.00000       Uiso       1.00
        C5          C  0.5433600  0.8082300  0.4148800    0.00000       Uiso       1.00
        H6          H  0.5775300  0.7945300  0.4520600    0.00000       Uiso       1.00
        C7          C  0.5433000  0.8450700  0.3085200    0.00000       Uiso       1.00
        H8          H  0.5768200  0.8585800  0.2624800    0.00000       Uiso       1.00
        C9          C  0.3062900  0.7103000  0.4398500    0.00000       Uiso       1.00
       H10          H  0.3175800  0.6793500  0.3838200    0.00000       Uiso       1.00
       C11          C  0.2786700  0.7101399  0.5883300    0.00000       Uiso       1.00
       H12          H  0.2695100  0.6782100  0.6379400    0.00000       Uiso       1.00
       C13          C  0.5432400  0.9363700  0.7748400    0.00000       Uiso       1.00
       H14          H  0.5769400  0.9242700  0.8254400    0.00000       Uiso       1.00
       C15          C  0.5434100  0.9670800  0.6423400    0.00000       Uiso       1.00
       H16          H  0.5781800  0.9772200  0.5978900    0.00000       Uiso       1.00
       C17          C  0.9363600  0.2101800  0.2814400    0.00000       Uiso       1.00
       H18          H  0.9515101  0.1788000  0.2453200    0.00000       Uiso       1.00
       C19          C  0.8959500  0.2102400  0.3864300    0.00000       Uiso       1.00
       H20          H  0.8814200  0.1794600  0.4332800    0.00000       Uiso       1.00
       C21          C  0.0433600  0.3082300  0.9148800    0.00000       Uiso       1.00
       H22          H  0.0775300  0.2945300  0.9520600    0.00000       Uiso       1.00
       C23          C  0.0433000  0.3450700  0.8085200    0.00000       Uiso       1.00
       H24          H  0.0768200  0.3585800  0.7624800    0.00000       Uiso       1.00
       C25          C  0.8062899  0.2103000  0.9398500    0.00000       Uiso       1.00
       H26          H  0.8175800  0.1793500  0.8838200    0.00000       Uiso       1.00
       C27          C  0.7786700  0.2101400  0.0883300    0.00000       Uiso       1.00
       H28          H  0.7695100  0.1782100  0.1379400    0.00000       Uiso       1.00
       C29          C  0.0432400  0.4363700  0.2748400    0.00000       Uiso       1.00
       H30          H  0.0769400  0.4242700  0.3254400    0.00000       Uiso       1.00
       C31          C  0.0434100  0.4670800  0.1423400    0.00000       Uiso       1.00
       H32          H  0.0781800  0.4772200  0.0978900    0.00000       Uiso       1.00
       C33          C  0.5636400  0.7898200  0.7814400    0.00000       Uiso       1.00
       H34          H  0.5484900  0.8212000  0.7453200    0.00000       Uiso       1.00
       C35          C  0.6040500  0.7897599  0.8864300    0.00000       Uiso       1.00
       H36          H  0.6185800  0.8205400  0.9332800    0.00000       Uiso       1.00
       C37          C  0.4566400  0.6917700  0.4148800    0.00000       Uiso       1.00
       H38          H  0.4224700  0.7054700  0.4520600    0.00000       Uiso       1.00
       C39          C  0.4567000  0.6549300  0.3085200    0.00000       Uiso       1.00
       H40          H  0.4231800  0.6414200  0.2624800    0.00000       Uiso       1.00
       C41          C  0.6937100  0.7897000  0.4398500    0.00000       Uiso       1.00
       H42          H  0.6824200  0.8206500  0.3838200    0.00000       Uiso       1.00
       C43          C  0.7213300  0.7898601  0.5883300    0.00000       Uiso       1.00
       H44          H  0.7304900  0.8217900  0.6379400    0.00000       Uiso       1.00
       C45          C  0.4567600  0.5636300  0.7748400    0.00000       Uiso       1.00
       H46          H  0.4230600  0.5757300  0.8254400    0.00000       Uiso       1.00
       C47          C  0.4565900  0.5329200  0.6423400    0.00000       Uiso       1.00
       H48          H  0.4218200  0.5227800  0.5978900    0.00000       Uiso       1.00
       C49          C  0.0636400  0.2898200  0.2814400    0.00000       Uiso       1.00
       H50          H  0.0484900  0.3212000  0.2453200    0.00000       Uiso       1.00
       C51          C  0.1040500  0.2897600  0.3864300    0.00000       Uiso       1.00
       H52          H  0.1185800  0.3205400  0.4332800    0.00000       Uiso       1.00
       C53          C  0.9566400  0.1917700  0.9148800    0.00000       Uiso       1.00
       H54          H  0.9224700  0.2054700  0.9520600    0.00000       Uiso       1.00
       C55          C  0.9567000  0.1549300  0.8085200    0.00000       Uiso       1.00
       H56          H  0.9231800  0.1414200  0.7624800    0.00000       Uiso       1.00
       C57          C  0.1937100  0.2897000  0.9398500    0.00000       Uiso       1.00
       H58          H  0.1824200  0.3206500  0.8838200    0.00000       Uiso       1.00
       C59          C  0.2213300  0.2898600  0.0883300    0.00000       Uiso       1.00
       H60          H  0.2304900  0.3217900  0.1379400    0.00000       Uiso       1.00
       C61          C  0.9567600  0.0636300  0.2748400    0.00000       Uiso       1.00
       H62          H  0.9230600  0.0757300  0.3254400    0.00000       Uiso       1.00
       C63          C  0.9565900  0.0329200  0.1423400    0.00000       Uiso       1.00
       H64          H  0.9218200  0.0227800  0.0978900    0.00000       Uiso       1.00
       C65          C  0.5636400  0.2101800  0.2185600    0.00000       Uiso       1.00
       H66          H  0.5484900  0.1788000  0.2546800    0.00000       Uiso       1.00
       C67          C  0.6040500  0.2102400  0.1135700    0.00000       Uiso       1.00
       H68          H  0.6185800  0.1794600  0.0667200    0.00000       Uiso       1.00
       C69          C  0.4566400  0.3082300  0.5851200    0.00000       Uiso       1.00
       H70          H  0.4224700  0.2945300  0.5479400    0.00000       Uiso       1.00
       C71          C  0.4567000  0.3450700  0.6914800    0.00000       Uiso       1.00
       H72          H  0.4231800  0.3585800  0.7375200    0.00000       Uiso       1.00
       C73          C  0.6937100  0.2103000  0.5601500    0.00000       Uiso       1.00
       H74          H  0.6824200  0.1793500  0.6161800    0.00000       Uiso       1.00
       C75          C  0.7213300  0.2101400  0.4116700    0.00000       Uiso       1.00
       H76          H  0.7304900  0.1782100  0.3620600    0.00000       Uiso       1.00
       C77          C  0.4567600  0.4363700  0.2251600    0.00000       Uiso       1.00
       H78          H  0.4230600  0.4242700  0.1745600    0.00000       Uiso       1.00
       C79          C  0.4565900  0.4670800  0.3576600    0.00000       Uiso       1.00
       H80          H  0.4218200  0.4772200  0.4021100    0.00000       Uiso       1.00
       C81          C  0.0636400  0.7101800  0.7185600    0.00000       Uiso       1.00
       H82          H  0.0484900  0.6788000  0.7546800    0.00000       Uiso       1.00
       C83          C  0.1040500  0.7102401  0.6135700    0.00000       Uiso       1.00
       H84          H  0.1185800  0.6794600  0.5667200    0.00000       Uiso       1.00
       C85          C  0.9566400  0.8082300  0.0851200    0.00000       Uiso       1.00
       H86          H  0.9224700  0.7945300  0.0479400    0.00000       Uiso       1.00
       C87          C  0.9567000  0.8450700  0.1914800    0.00000       Uiso       1.00
       H88          H  0.9231800  0.8585800  0.2375200    0.00000       Uiso       1.00
       C89          C  0.1937100  0.7103000  0.0601500    0.00000       Uiso       1.00
       H90          H  0.1824200  0.6793500  0.1161800    0.00000       Uiso       1.00
       C91          C  0.2213300  0.7101399  0.9116700    0.00000       Uiso       1.00
       H92          H  0.2304900  0.6782100  0.8620600    0.00000       Uiso       1.00
       C93          C  0.9567600  0.9363700  0.7251600    0.00000       Uiso       1.00
       H94          H  0.9230600  0.9242700  0.6745600    0.00000       Uiso       1.00
       C95          C  0.9565900  0.9670800  0.8576600    0.00000       Uiso       1.00
       H96          H  0.9218200  0.9772200  0.9021100    0.00000       Uiso       1.00
       C97          C  0.4363600  0.2898200  0.2185600    0.00000       Uiso       1.00
       H98          H  0.4515100  0.3212000  0.2546800    0.00000       Uiso       1.00
       C99          C  0.3959500  0.2897600  0.1135700    0.00000       Uiso       1.00
      H100          H  0.3814200  0.3205400  0.0667200    0.00000       Uiso       1.00
      C101          C  0.5433600  0.1917700  0.5851200    0.00000       Uiso       1.00
      H102          H  0.5775300  0.2054700  0.5479400    0.00000       Uiso       1.00
      C103          C  0.5433000  0.1549300  0.6914800    0.00000       Uiso       1.00
      H104          H  0.5768200  0.1414200  0.7375200    0.00000       Uiso       1.00
      C105          C  0.3062900  0.2897000  0.5601500    0.00000       Uiso       1.00
      H106          H  0.3175800  0.3206500  0.6161800    0.00000       Uiso       1.00
      C107          C  0.2786700  0.2898600  0.4116700    0.00000       Uiso       1.00
      H108          H  0.2695100  0.3217900  0.3620600    0.00000       Uiso       1.00
      C109          C  0.5432400  0.0636300  0.2251600    0.00000       Uiso       1.00
      H110          H  0.5769400  0.0757300  0.1745600    0.00000       Uiso       1.00
      C111          C  0.5434100  0.0329200  0.3576600    0.00000       Uiso       1.00
      H112          H  0.5781800  0.0227800  0.4021100    0.00000       Uiso       1.00
      C113          C  0.9363600  0.7898200  0.7185600    0.00000       Uiso       1.00
      H114          H  0.9515101  0.8212000  0.7546800    0.00000       Uiso       1.00
      C115          C  0.8959500  0.7897599  0.6135700    0.00000       Uiso       1.00
      H116          H  0.8814200  0.8205400  0.5667200    0.00000       Uiso       1.00
      C117          C  0.0433600  0.6917700  0.0851200    0.00000       Uiso       1.00
      H118          H  0.0775300  0.7054700  0.0479400    0.00000       Uiso       1.00
      C119          C  0.0433000  0.6549300  0.1914800    0.00000       Uiso       1.00
      H120          H  0.0768200  0.6414200  0.2375200    0.00000       Uiso       1.00
      C121          C  0.8062899  0.7897000  0.0601500    0.00000       Uiso       1.00
      H122          H  0.8175800  0.8206500  0.1161800    0.00000       Uiso       1.00
      C123          C  0.7786700  0.7898601  0.9116700    0.00000       Uiso       1.00
      H124          H  0.7695100  0.8217900  0.8620600    0.00000       Uiso       1.00
      C125          C  0.0432400  0.5636300  0.7251600    0.00000       Uiso       1.00
      H126          H  0.0769400  0.5757300  0.6745600    0.00000       Uiso       1.00
      C127          C  0.0434100  0.5329200  0.8576600    0.00000       Uiso       1.00
      H128          H  0.0781800  0.5227800  0.9021100    0.00000       Uiso       1.00
      C129          C  0.5636400  0.2898200  0.2185600    0.00000       Uiso       1.00
      H130          H  0.5484900  0.3212000  0.2546800    0.00000       Uiso       1.00
      C131          C  0.6040500  0.2897600  0.1135700    0.00000       Uiso       1.00
      H132          H  0.6185800  0.3205400  0.0667200    0.00000       Uiso       1.00
      C133          C  0.4566400  0.1917700  0.5851200    0.00000       Uiso       1.00
      H134          H  0.4224700  0.2054700  0.5479400    0.00000       Uiso       1.00
      C135          C  0.4567000  0.1549300  0.6914800    0.00000       Uiso       1.00
      H136          H  0.4231800  0.1414200  0.7375200    0.00000       Uiso       1.00
      C137          C  0.6937100  0.2897000  0.5601500    0.00000       Uiso       1.00
      H138          H  0.6824200  0.3206500  0.6161800    0.00000       Uiso       1.00
      C139          C  0.7213300  0.2898600  0.4116700    0.00000       Uiso       1.00
      H140          H  0.7304900  0.3217900  0.3620600    0.00000       Uiso       1.00
      C141          C  0.4567600  0.0636300  0.2251600    0.00000       Uiso       1.00
      H142          H  0.4230600  0.0757300  0.1745600    0.00000       Uiso       1.00
      C143          C  0.4565900  0.0329200  0.3576600    0.00000       Uiso       1.00
      H144          H  0.4218200  0.0227800  0.4021100    0.00000       Uiso       1.00
      C145          C  0.0636400  0.7898200  0.7185600    0.00000       Uiso       1.00
      H146          H  0.0484900  0.8212000  0.7546800    0.00000       Uiso       1.00
      C147          C  0.1040500  0.7897599  0.6135700    0.00000       Uiso       1.00
      H148          H  0.1185800  0.8205400  0.5667200    0.00000       Uiso       1.00
      C149          C  0.9566400  0.6917700  0.0851200    0.00000       Uiso       1.00
      H150          H  0.9224700  0.7054700  0.0479400    0.00000       Uiso       1.00
      C151          C  0.9567000  0.6549300  0.1914800    0.00000       Uiso       1.00
      H152          H  0.9231800  0.6414200  0.2375200    0.00000       Uiso       1.00
      C153          C  0.1937100  0.7897000  0.0601500    0.00000       Uiso       1.00
      H154          H  0.1824200  0.8206500  0.1161800    0.00000       Uiso       1.00
      C155          C  0.2213300  0.7898601  0.9116700    0.00000       Uiso       1.00
      H156          H  0.2304900  0.8217900  0.8620600    0.00000       Uiso       1.00
      C157          C  0.9567600  0.5636300  0.7251600    0.00000       Uiso       1.00
      H158          H  0.9230600  0.5757300  0.6745600    0.00000       Uiso       1.00
      C159          C  0.9565900  0.5329200  0.8576600    0.00000       Uiso       1.00
      H160          H  0.9218200  0.5227800  0.9021100    0.00000       Uiso       1.00
      C161          C  0.4363600  0.2101800  0.2185600    0.00000       Uiso       1.00
      H162          H  0.4515100  0.1788000  0.2546800    0.00000       Uiso       1.00
      C163          C  0.3959500  0.2102400  0.1135700    0.00000       Uiso       1.00
      H164          H  0.3814200  0.1794600  0.0667200    0.00000       Uiso       1.00
      C165          C  0.5433600  0.3082300  0.5851200    0.00000       Uiso       1.00
      H166          H  0.5775300  0.2945300  0.5479400    0.00000       Uiso       1.00
      C167          C  0.5433000  0.3450700  0.6914800    0.00000       Uiso       1.00
      H168          H  0.5768200  0.3585800  0.7375200    0.00000       Uiso       1.00
      C169          C  0.3062900  0.2103000  0.5601500    0.00000       Uiso       1.00
      H170          H  0.3175800  0.1793500  0.6161800    0.00000       Uiso       1.00
      C171          C  0.2786700  0.2101400  0.4116700    0.00000       Uiso       1.00
      H172          H  0.2695100  0.1782100  0.3620600    0.00000       Uiso       1.00
      C173          C  0.5432400  0.4363700  0.2251600    0.00000       Uiso       1.00
      H174          H  0.5769400  0.4242700  0.1745600    0.00000       Uiso       1.00
      C175          C  0.5434100  0.4670800  0.3576600    0.00000       Uiso       1.00
      H176          H  0.5781800  0.4772200  0.4021100    0.00000       Uiso       1.00
      C177          C  0.9363600  0.7101800  0.7185600    0.00000       Uiso       1.00
      H178          H  0.9515101  0.6788000  0.7546800    0.00000       Uiso       1.00
      C179          C  0.8959500  0.7102401  0.6135700    0.00000       Uiso       1.00
      H180          H  0.8814200  0.6794600  0.5667200    0.00000       Uiso       1.00
      C181          C  0.0433600  0.8082300  0.0851200    0.00000       Uiso       1.00
      H182          H  0.0775300  0.7945300  0.0479400    0.00000       Uiso       1.00
      C183          C  0.0433000  0.8450700  0.1914800    0.00000       Uiso       1.00
      H184          H  0.0768200  0.8585800  0.2375200    0.00000       Uiso       1.00
      C185          C  0.8062899  0.7103000  0.0601500    0.00000       Uiso       1.00
      H186          H  0.8175800  0.6793500  0.1161800    0.00000       Uiso       1.00
      C187          C  0.7786700  0.7101399  0.9116700    0.00000       Uiso       1.00
      H188          H  0.7695100  0.6782100  0.8620600    0.00000       Uiso       1.00
      C189          C  0.0432400  0.9363700  0.7251600    0.00000       Uiso       1.00
      H190          H  0.0769400  0.9242700  0.6745600    0.00000       Uiso       1.00
      C191          C  0.0434100  0.9670800  0.8576600    0.00000       Uiso       1.00
      H192          H  0.0781800  0.9772200  0.9021100    0.00000       Uiso       1.00
      C193          C  0.4363600  0.7898200  0.7814400    0.00000       Uiso       1.00
      H194          H  0.4515100  0.8212000  0.7453200    0.00000       Uiso       1.00
      C195          C  0.3959500  0.7897599  0.8864300    0.00000       Uiso       1.00
      H196          H  0.3814200  0.8205400  0.9332800    0.00000       Uiso       1.00
      C197          C  0.5433600  0.6917700  0.4148800    0.00000       Uiso       1.00
      H198          H  0.5775300  0.7054700  0.4520600    0.00000       Uiso       1.00
      C199          C  0.5433000  0.6549300  0.3085200    0.00000       Uiso       1.00
      H200          H  0.5768200  0.6414200  0.2624800    0.00000       Uiso       1.00
      C201          C  0.3062900  0.7897000  0.4398500    0.00000       Uiso       1.00
      H202          H  0.3175800  0.8206500  0.3838200    0.00000       Uiso       1.00
      C203          C  0.2786700  0.7898601  0.5883300    0.00000       Uiso       1.00
      H204          H  0.2695100  0.8217900  0.6379400    0.00000       Uiso       1.00
      C205          C  0.5432400  0.5636300  0.7748400    0.00000       Uiso       1.00
      H206          H  0.5769400  0.5757300  0.8254400    0.00000       Uiso       1.00
      C207          C  0.5434100  0.5329200  0.6423400    0.00000       Uiso       1.00
      H208          H  0.5781800  0.5227800  0.5978900    0.00000       Uiso       1.00
      C209          C  0.9363600  0.2898200  0.2814400    0.00000       Uiso       1.00
      H210          H  0.9515101  0.3212000  0.2453200    0.00000       Uiso       1.00
      C211          C  0.8959500  0.2897600  0.3864300    0.00000       Uiso       1.00
      H212          H  0.8814200  0.3205400  0.4332800    0.00000       Uiso       1.00
      C213          C  0.0433600  0.1917700  0.9148800    0.00000       Uiso       1.00
      H214          H  0.0775300  0.2054700  0.9520600    0.00000       Uiso       1.00
      C215          C  0.0433000  0.1549300  0.8085200    0.00000       Uiso       1.00
      H216          H  0.0768200  0.1414200  0.7624800    0.00000       Uiso       1.00
      C217          C  0.8062899  0.2897000  0.9398500    0.00000       Uiso       1.00
      H218          H  0.8175800  0.3206500  0.8838200    0.00000       Uiso       1.00
      C219          C  0.7786700  0.2898600  0.0883300    0.00000       Uiso       1.00
      H220          H  0.7695100  0.3217900  0.1379400    0.00000       Uiso       1.00
      C221          C  0.0432400  0.0636300  0.2748400    0.00000       Uiso       1.00
      H222          H  0.0769400  0.0757300  0.3254400    0.00000       Uiso       1.00
      C223          C  0.0434100  0.0329200  0.1423400    0.00000       Uiso       1.00
      H224          H  0.0781800  0.0227800  0.0978900    0.00000       Uiso       1.00
      C225          C  0.5636400  0.7101800  0.7814400    0.00000       Uiso       1.00
      H226          H  0.5484900  0.6788000  0.7453200    0.00000       Uiso       1.00
      C227          C  0.6040500  0.7102401  0.8864300    0.00000       Uiso       1.00
      H228          H  0.6185800  0.6794600  0.9332800    0.00000       Uiso       1.00
      C229          C  0.4566400  0.8082300  0.4148800    0.00000       Uiso       1.00
      H230          H  0.4224700  0.7945300  0.4520600    0.00000       Uiso       1.00
      C231          C  0.4567000  0.8450700  0.3085200    0.00000       Uiso       1.00
      H232          H  0.4231800  0.8585800  0.2624800    0.00000       Uiso       1.00
      C233          C  0.6937100  0.7103000  0.4398500    0.00000       Uiso       1.00
      H234          H  0.6824200  0.6793500  0.3838200    0.00000       Uiso       1.00
      C235          C  0.7213300  0.7101399  0.5883300    0.00000       Uiso       1.00
      H236          H  0.7304900  0.6782100  0.6379400    0.00000       Uiso       1.00
      C237          C  0.4567600  0.9363700  0.7748400    0.00000       Uiso       1.00
      H238          H  0.4230600  0.9242700  0.8254400    0.00000       Uiso       1.00
      C239          C  0.4565900  0.9670800  0.6423400    0.00000       Uiso       1.00
      H240          H  0.4218200  0.9772200  0.5978900    0.00000       Uiso       1.00
      C241          C  0.0636400  0.2101800  0.2814400    0.00000       Uiso       1.00
      H242          H  0.0484900  0.1788000  0.2453200    0.00000       Uiso       1.00
      C243          C  0.1040500  0.2102400  0.3864300    0.00000       Uiso       1.00
      H244          H  0.1185800  0.1794600  0.4332800    0.00000       Uiso       1.00
      C245          C  0.9566400  0.3082300  0.9148800    0.00000       Uiso       1.00
      H246          H  0.9224700  0.2945300  0.9520600    0.00000       Uiso       1.00
      C247          C  0.9567000  0.3450700  0.8085200    0.00000       Uiso       1.00
      H248          H  0.9231800  0.3585800  0.7624800    0.00000       Uiso       1.00
      C249          C  0.1937100  0.2103000  0.9398500    0.00000       Uiso       1.00
      H250          H  0.1824200  0.1793500  0.8838200    0.00000       Uiso       1.00
      C251          C  0.2213300  0.2101400  0.0883300    0.00000       Uiso       1.00
      H252          H  0.2304900  0.1782100  0.1379400    0.00000       Uiso       1.00
      C253          C  0.9567600  0.4363700  0.2748400    0.00000       Uiso       1.00
      H254          H  0.9230600  0.4242700  0.3254400    0.00000       Uiso       1.00
      C255          C  0.9565900  0.4670800  0.1423400    0.00000       Uiso       1.00
      H256          H  0.9218200  0.4772200  0.0978900    0.00000       Uiso       1.00
      N257          N  0.3397600  0.7499999  0.0675300    0.00000       Uiso       1.00
      C258          C  0.4561200  0.7499999  0.7198200    0.00000       Uiso       1.00
      C259          C  0.3753500  0.7499999  0.9372800    0.00000       Uiso       1.00
      C260          C  0.3539900  0.7499999  0.2244200    0.00000       Uiso       1.00
      H261          H  0.3918700  0.7499999  0.2528000    0.00000       Uiso       1.00
      C262          C  0.3201300  0.7499999  0.3657500    0.00000       Uiso       1.00
      C263          C  0.2644400  0.7499999  0.6681900    0.00000       Uiso       1.00
      N264          N  0.8397600  0.2500000  0.5675300    0.00000       Uiso       1.00
      C265          C  0.9561200  0.2500000  0.2198200    0.00000       Uiso       1.00
      C266          C  0.8753500  0.2500000  0.4372800    0.00000       Uiso       1.00
      C267          C  0.8539900  0.2500000  0.7244200    0.00000       Uiso       1.00
      H268          H  0.8918700  0.2500000  0.7528000    0.00000       Uiso       1.00
      C269          C  0.8201301  0.2500000  0.8657500    0.00000       Uiso       1.00
      C270          C  0.7644400  0.2500000  0.1681900    0.00000       Uiso       1.00
      N271          N  0.6602400  0.7499999  0.0675300    0.00000       Uiso       1.00
      C272          C  0.5438800  0.7499999  0.7198200    0.00000       Uiso       1.00
      C273          C  0.6246500  0.7499999  0.9372800    0.00000       Uiso       1.00
      C274          C  0.6460099  0.7499999  0.2244200    0.00000       Uiso       1.00
      H275          H  0.6081300  0.7499999  0.2528000    0.00000       Uiso       1.00
      C276          C  0.6798700  0.7499999  0.3657500    0.00000       Uiso       1.00
      C277          C  0.7355600  0.7499999  0.6681900    0.00000       Uiso       1.00
      N278          N  0.1602400  0.2500000  0.5675300    0.00000       Uiso       1.00
      C279          C  0.0438800  0.2500000  0.2198200    0.00000       Uiso       1.00
      C280          C  0.1246500  0.2500000  0.4372800    0.00000       Uiso       1.00
      C281          C  0.1460100  0.2500000  0.7244200    0.00000       Uiso       1.00
      H282          H  0.1081300  0.2500000  0.7528000    0.00000       Uiso       1.00
      C283          C  0.1798700  0.2500000  0.8657500    0.00000       Uiso       1.00
      C284          C  0.2355600  0.2500000  0.1681900    0.00000       Uiso       1.00
      N285          N  0.6602400  0.2500000  0.9324700    0.00000       Uiso       1.00
      C286          C  0.5438800  0.2500000  0.2801800    0.00000       Uiso       1.00
      C287          C  0.6246500  0.2500000  0.0627200    0.00000       Uiso       1.00
      C288          C  0.6460099  0.2500000  0.7755800    0.00000       Uiso       1.00
      H289          H  0.6081300  0.2500000  0.7472000    0.00000       Uiso       1.00
      C290          C  0.6798700  0.2500000  0.6342500    0.00000       Uiso       1.00
      C291          C  0.7355600  0.2500000  0.3318100    0.00000       Uiso       1.00
      N292          N  0.1602400  0.7499999  0.4324700    0.00000       Uiso       1.00
      C293          C  0.0438800  0.7499999  0.7801800    0.00000       Uiso       1.00
      C294          C  0.1246500  0.7499999  0.5627200    0.00000       Uiso       1.00
      C295          C  0.1460100  0.7499999  0.2755800    0.00000       Uiso       1.00
      H296          H  0.1081300  0.7499999  0.2472000    0.00000       Uiso       1.00
      C297          C  0.1798700  0.7499999  0.1342500    0.00000       Uiso       1.00
      C298          C  0.2355600  0.7499999  0.8318100    0.00000       Uiso       1.00
      N299          N  0.3397600  0.2500000  0.9324700    0.00000       Uiso       1.00
      C300          C  0.4561200  0.2500000  0.2801800    0.00000       Uiso       1.00
      C301          C  0.3753500  0.2500000  0.0627200    0.00000       Uiso       1.00
      C302          C  0.3539900  0.2500000  0.7755800    0.00000       Uiso       1.00
      H303          H  0.3918700  0.2500000  0.7472000    0.00000       Uiso       1.00
      C304          C  0.3201300  0.2500000  0.6342500    0.00000       Uiso       1.00
      C305          C  0.2644400  0.2500000  0.3318100    0.00000       Uiso       1.00
      N306          N  0.8397600  0.7499999  0.4324700    0.00000       Uiso       1.00
      C307          C  0.9561200  0.7499999  0.7801800    0.00000       Uiso       1.00
      C308          C  0.8753500  0.7499999  0.5627200    0.00000       Uiso       1.00
      C309          C  0.8539900  0.7499999  0.2755800    0.00000       Uiso       1.00
      H310          H  0.8918700  0.7499999  0.2472000    0.00000       Uiso       1.00
      C311          C  0.8201301  0.7499999  0.1342500    0.00000       Uiso       1.00
      C312          C  0.7644400  0.7499999  0.8318100    0.00000       Uiso       1.00
      N313          N  0.5000000  0.8980600  0.1331900    0.00000       Uiso       1.00
      C314          C  0.5000000  0.7902100  0.4770300    0.00000       Uiso       1.00
      C315          C  0.5000000  0.8638800  0.2574100    0.00000       Uiso       1.00
      C316          C  0.5000000  0.8875000  0.9735000    0.00000       Uiso       1.00
      H317          H  0.5000000  0.8533000  0.9361800    0.00000       Uiso       1.00
      C318          C  0.5000000  0.9212200  0.8415600    0.00000       Uiso       1.00
      C319          C  0.5000000  0.9833800  0.5720100    0.00000       Uiso       1.00
      N320          N  0.0000000  0.3980600  0.6331900    0.00000       Uiso       1.00
      C321          C  0.0000000  0.2902100  0.9770300    0.00000       Uiso       1.00
      C322          C  0.0000000  0.3638800  0.7574100    0.00000       Uiso       1.00
      C323          C  0.0000000  0.3875000  0.4735000    0.00000       Uiso       1.00
      H324          H  0.0000000  0.3533000  0.4361800    0.00000       Uiso       1.00
      C325          C  0.0000000  0.4212200  0.3415600    0.00000       Uiso       1.00
      C326          C  0.0000000  0.4833800  0.0720100    0.00000       Uiso       1.00
      N327          N  0.5000000  0.6019400  0.1331900    0.00000       Uiso       1.00
      C328          C  0.5000000  0.7097900  0.4770300    0.00000       Uiso       1.00
      C329          C  0.5000000  0.6361200  0.2574100    0.00000       Uiso       1.00
      C330          C  0.5000000  0.6125000  0.9735000    0.00000       Uiso       1.00
      H331          H  0.5000000  0.6467000  0.9361800    0.00000       Uiso       1.00
      C332          C  0.5000000  0.5787800  0.8415600    0.00000       Uiso       1.00
      C333          C  0.5000000  0.5166200  0.5720100    0.00000       Uiso       1.00
      N334          N  0.0000000  0.1019400  0.6331900    0.00000       Uiso       1.00
      C335          C  0.0000000  0.2097900  0.9770300    0.00000       Uiso       1.00
      C336          C  0.0000000  0.1361200  0.7574100    0.00000       Uiso       1.00
      C337          C  0.0000000  0.1125000  0.4735000    0.00000       Uiso       1.00
      H338          H  0.0000000  0.1467000  0.4361800    0.00000       Uiso       1.00
      C339          C  0.0000000  0.0787800  0.3415600    0.00000       Uiso       1.00
      C340          C  0.0000000  0.0166200  0.0720100    0.00000       Uiso       1.00
      N341          N  0.5000000  0.3980600  0.8668100    0.00000       Uiso       1.00
      C342          C  0.5000000  0.2902100  0.5229700    0.00000       Uiso       1.00
      C343          C  0.5000000  0.3638800  0.7425900    0.00000       Uiso       1.00
      C344          C  0.5000000  0.3875000  0.0265000    0.00000       Uiso       1.00
      H345          H  0.5000000  0.3533000  0.0638200    0.00000       Uiso       1.00
      C346          C  0.5000000  0.4212200  0.1584400    0.00000       Uiso       1.00
      C347          C  0.5000000  0.4833800  0.4279900    0.00000       Uiso       1.00
      N348          N  0.0000000  0.8980600  0.3668100    0.00000       Uiso       1.00
      C349          C  0.0000000  0.7902100  0.0229700    0.00000       Uiso       1.00
      C350          C  0.0000000  0.8638800  0.2425900    0.00000       Uiso       1.00
      C351          C  0.0000000  0.8875000  0.5265000    0.00000       Uiso       1.00
      H352          H  0.0000000  0.8533000  0.5638200    0.00000       Uiso       1.00
      C353          C  0.0000000  0.9212200  0.6584400    0.00000       Uiso       1.00
      C354          C  0.0000000  0.9833800  0.9279900    0.00000       Uiso       1.00
      N355          N  0.5000000  0.1019400  0.8668100    0.00000       Uiso       1.00
      C356          C  0.5000000  0.2097900  0.5229700    0.00000       Uiso       1.00
      C357          C  0.5000000  0.1361200  0.7425900    0.00000       Uiso       1.00
      C358          C  0.5000000  0.1125000  0.0265000    0.00000       Uiso       1.00
      H359          H  0.5000000  0.1467000  0.0638200    0.00000       Uiso       1.00
      C360          C  0.5000000  0.0787800  0.1584400    0.00000       Uiso       1.00
      C361          C  0.5000000  0.0166200  0.4279900    0.00000       Uiso       1.00
      N362          N  0.0000000  0.6019400  0.3668100    0.00000       Uiso       1.00
      C363          C  0.0000000  0.7097900  0.0229700    0.00000       Uiso       1.00
      C364          C  0.0000000  0.6361200  0.2425900    0.00000       Uiso       1.00
      C365          C  0.0000000  0.6125000  0.5265000    0.00000       Uiso       1.00
      H366          H  0.0000000  0.6467000  0.5638200    0.00000       Uiso       1.00
      C367          C  0.0000000  0.5787800  0.6584400    0.00000       Uiso       1.00
      C368          C  0.0000000  0.5166200  0.9279900    0.00000       Uiso       1.00
      C369          C  0.5000000  0.7499999  0.5985900    0.00000       Uiso       1.00
      C370          C  0.0000000  0.2500000  0.0985900    0.00000       Uiso       1.00
      C371          C  0.5000000  0.2500000  0.4014100    0.00000       Uiso       1.00
      C372          C  0.0000000  0.7499999  0.9014100    0.00000       Uiso       1.00
