data_MC-COF-NiPc-E1E7
_audit_creation_date              0000-00-00
_audit_creation_method            'LanYouShi'
_symmetry_space_group_name_H-M    'P1'
_cell_length_a                    27.3568993
_cell_length_b                    23.1049004
_cell_length_c                    3.4935000
_cell_angle_alpha                 90.0000000
_cell_angle_beta                  90.0000000
_cell_angle_gamma                 90.0000000
loop_
_atom_site_label
_atom_site_type_symbol
_atom_site_fract_x
_atom_site_fract_y
_atom_site_fract_z
_atom_site_U_iso_or_equiv
_atom_site_adp_type
_atom_site_occupancy
        C1          C  0.7394019  0.9696110  0.5000050    0.00000       Uiso       1.00
        C2          C  0.2605980  0.0303870  0.5000050    0.00000       Uiso       1.00
        C3          C  0.2605980  0.9696110  0.5000050    0.00000       Uiso       1.00
        C4          C  0.7394019  0.0303870  0.5000050    0.00000       Uiso       1.00
        C5          C  0.6955110  0.0622170  0.5000050    0.00000       Uiso       1.00
        C6          C  0.3044880  0.9377810  0.5000050    0.00000       Uiso       1.00
        C7          C  0.3044880  0.0622170  0.5000050    0.00000       Uiso       1.00
        C8          C  0.6955110  0.9377810  0.5000050    0.00000       Uiso       1.00
        C9          C  0.6516370  0.0302460  0.5000050    0.00000       Uiso       1.00
       C10          C  0.3483630  0.9697520  0.5000050    0.00000       Uiso       1.00
       C11          C  0.3483630  0.0302460  0.5000050    0.00000       Uiso       1.00
       C12          C  0.6516370  0.9697520  0.5000050    0.00000       Uiso       1.00
       C13          C  0.6030560  0.0479050  0.5000050    0.00000       Uiso       1.00
       C14          C  0.3969440  0.9520930  0.5000050    0.00000       Uiso       1.00
       C15          C  0.3969440  0.0479050  0.5000050    0.00000       Uiso       1.00
       C16          C  0.6030560  0.9520930  0.5000050    0.00000       Uiso       1.00
       C17          C  0.5000000  0.5614260  0.5000050    0.00000       Uiso       1.00
       C18          C  0.5000000  0.4385720  0.5000050    0.00000       Uiso       1.00
       C19          C  0.4555380  0.5304660  0.5000050    0.00000       Uiso       1.00
       C20          C  0.5444620  0.4695320  0.5000050    0.00000       Uiso       1.00
       C21          C  0.5444620  0.5304660  0.5000050    0.00000       Uiso       1.00
       C22          C  0.4555380  0.4695320  0.5000050    0.00000       Uiso       1.00
       H23          H  0.4228490  0.5519860  0.5000050    0.00000       Uiso       1.00
       H24          H  0.5771500  0.4480120  0.5000050    0.00000       Uiso       1.00
       H25          H  0.5771500  0.5519860  0.5000050    0.00000       Uiso       1.00
       H26          H  0.4228490  0.4480120  0.5000050    0.00000       Uiso       1.00
       C27          C  0.0259800  0.0000000  0.5000050    0.00000       Uiso       1.00
       C28          C  0.9740190  0.0000000  0.5000050    0.00000       Uiso       1.00
       C29          C  0.0256770  0.8941740  0.5000050    0.00000       Uiso       1.00
       C30          C  0.9743230  0.1058250  0.5000050    0.00000       Uiso       1.00
       C31          C  0.9743230  0.8941740  0.5000050    0.00000       Uiso       1.00
       C32          C  0.0256770  0.1058250  0.5000050    0.00000       Uiso       1.00
       C33          C  0.0519370  0.9467380  0.5000050    0.00000       Uiso       1.00
       C34          C  0.9480620  0.0532600  0.5000050    0.00000       Uiso       1.00
       C35          C  0.9480620  0.9467380  0.5000050    0.00000       Uiso       1.00
       C36          C  0.0519370  0.0532600  0.5000050    0.00000       Uiso       1.00
       C37          C  0.1035280  0.9472840  0.5000050    0.00000       Uiso       1.00
       C38          C  0.8964710  0.0527140  0.5000050    0.00000       Uiso       1.00
       C39          C  0.8964710  0.9472840  0.5000050    0.00000       Uiso       1.00
       C40          C  0.1035280  0.0527140  0.5000050    0.00000       Uiso       1.00
       H41          H  0.1222520  0.9088939  0.5000050    0.00000       Uiso       1.00
       H42          H  0.8777480  0.0911040  0.5000050    0.00000       Uiso       1.00
       H43          H  0.8777480  0.9088939  0.5000050    0.00000       Uiso       1.00
       H44          H  0.1222520  0.0911040  0.5000050    0.00000       Uiso       1.00
       H45          H  0.0437150  0.8553640  0.5000050    0.00000       Uiso       1.00
       H46          H  0.9562840  0.1446340  0.5000050    0.00000       Uiso       1.00
       H47          H  0.9562840  0.8553640  0.5000050    0.00000       Uiso       1.00
       H48          H  0.0437150  0.1446340  0.5000050    0.00000       Uiso       1.00
      Ni49         Ni  0.5000000  0.0000000  0.5000050    0.00000       Uiso       1.00
       O50          O  0.7855650  0.0508910  0.5000050    0.00000       Uiso       1.00
       O51          O  0.2144340  0.9491070  0.5000050    0.00000       Uiso       1.00
       O52          O  0.2144340  0.0508910  0.5000050    0.00000       Uiso       1.00
       O53          O  0.7855650  0.9491070  0.5000050    0.00000       Uiso       1.00
       H54          H  0.6956430  0.1064230  0.5000050    0.00000       Uiso       1.00
       H55          H  0.3043570  0.8935750  0.5000050    0.00000       Uiso       1.00
       H56          H  0.3043570  0.1064230  0.5000050    0.00000       Uiso       1.00
       H57          H  0.6956430  0.8935750  0.5000050    0.00000       Uiso       1.00
       C58          C  0.4743370  0.7165911  0.5000050    0.00000       Uiso       1.00
       C59          C  0.5525540  0.7685480  0.5000050    0.00000       Uiso       1.00
       C60          C  0.5255910  0.8205220  0.5000050    0.00000       Uiso       1.00
       C61          C  0.5407410  0.8779880  0.5000050    0.00000       Uiso       1.00
       C62          C  0.5256630  0.2834070  0.5000050    0.00000       Uiso       1.00
       C63          C  0.4474460  0.2314500  0.5000050    0.00000       Uiso       1.00
       C64          C  0.4744090  0.1794760  0.5000050    0.00000       Uiso       1.00
       C65          C  0.4592580  0.1220110  0.5000050    0.00000       Uiso       1.00
       C66          C  0.5256630  0.7165911  0.5000050    0.00000       Uiso       1.00
       C67          C  0.4474460  0.7685480  0.5000050    0.00000       Uiso       1.00
       C68          C  0.4744090  0.8205220  0.5000050    0.00000       Uiso       1.00
       C69          C  0.4592580  0.8779880  0.5000050    0.00000       Uiso       1.00
       C70          C  0.4743370  0.2834070  0.5000050    0.00000       Uiso       1.00
       C71          C  0.5525540  0.2314500  0.5000050    0.00000       Uiso       1.00
       C72          C  0.5255910  0.1794760  0.5000050    0.00000       Uiso       1.00
       C73          C  0.5407410  0.1220110  0.5000050    0.00000       Uiso       1.00
       O74          O  0.5429850  0.6619300  0.5000050    0.00000       Uiso       1.00
       O75          O  0.4570150  0.3380680  0.5000050    0.00000       Uiso       1.00
       O76          O  0.4570150  0.6619300  0.5000050    0.00000       Uiso       1.00
       O77          O  0.5429850  0.3380680  0.5000050    0.00000       Uiso       1.00
       H78          H  0.5898900  0.7683681  0.5000050    0.00000       Uiso       1.00
       H79          H  0.4101090  0.2316300  0.5000050    0.00000       Uiso       1.00
       H80          H  0.4101090  0.7683681  0.5000050    0.00000       Uiso       1.00
       H81          H  0.5898900  0.2316300  0.5000050    0.00000       Uiso       1.00
       N82          N  0.5875410  0.1034020  0.5000050    0.00000       Uiso       1.00
       N83          N  0.4124580  0.8965960  0.5000050    0.00000       Uiso       1.00
       N84          N  0.4124580  0.1034020  0.5000050    0.00000       Uiso       1.00
       N85          N  0.5875410  0.8965960  0.5000050    0.00000       Uiso       1.00
       B86          B  0.8160900  0.0000000  0.5000050    0.00000       Uiso       1.00
       B87          B  0.1839090  0.0000000  0.5000050    0.00000       Uiso       1.00
       N88          N  0.5748880  0.0000000  0.5000050    0.00000       Uiso       1.00
       N89          N  0.4251120  0.0000000  0.5000050    0.00000       Uiso       1.00
       B90          B  0.5000000  0.6257970  0.5000050    0.00000       Uiso       1.00
       B91          B  0.5000000  0.3742010  0.5000050    0.00000       Uiso       1.00
       N92          N  0.5000000  0.9106890  0.5000050    0.00000       Uiso       1.00
       N93          N  0.5000000  0.0893090  0.5000050    0.00000       Uiso       1.00
       C94          C  0.1295320  0.0000000  0.5000050    0.00000       Uiso       1.00
       C95          C  0.8704670  0.0000000  0.5000050    0.00000       Uiso       1.00
