data_MC-COF-TP-E12E71
_audit_creation_date              0000-00-00
_audit_creation_method            'LanYouShi'
_symmetry_space_group_name_H-M    'P1'
_cell_length_a                    60.7661018
_cell_length_b                    30.1693001
_cell_length_c                    3.5023999
_cell_angle_alpha                 90.0000000
_cell_angle_beta                  90.0000000
_cell_angle_gamma                 90.0000000
loop_
_atom_site_label
_atom_site_type_symbol
_atom_site_fract_x
_atom_site_fract_y
_atom_site_fract_z
_atom_site_U_iso_or_equiv
_atom_site_adp_type
_atom_site_occupancy
        C1          C  0.3420880  0.5238650  0.4999970    0.00000       Uiso       1.00
        C2          C  0.3420880  0.4761350  0.4999970    0.00000       Uiso       1.00
        C3          C  0.3628380  0.4536850  0.4999970    0.00000       Uiso       1.00
        C4          C  0.3628380  0.5463150  0.4999970    0.00000       Uiso       1.00
        C5          C  0.3826270  0.4771010  0.4999970    0.00000       Uiso       1.00
        C6          C  0.3826270  0.5228990  0.4999970    0.00000       Uiso       1.00
        C7          C  0.8420890  0.0238650  0.4999970    0.00000       Uiso       1.00
        C8          C  0.8628380  0.0463150  0.4999970    0.00000       Uiso       1.00
        C9          C  0.8826280  0.0228990  0.4999970    0.00000       Uiso       1.00
       C10          C  0.6579120  0.4761350  0.4999970    0.00000       Uiso       1.00
       C11          C  0.6579120  0.5238650  0.4999970    0.00000       Uiso       1.00
       C12          C  0.6371630  0.5463150  0.4999970    0.00000       Uiso       1.00
       C13          C  0.6371630  0.4536850  0.4999970    0.00000       Uiso       1.00
       C14          C  0.6173730  0.5228990  0.4999970    0.00000       Uiso       1.00
       C15          C  0.6173730  0.4771010  0.4999970    0.00000       Uiso       1.00
       C16          C  0.1579120  0.9761350  0.4999970    0.00000       Uiso       1.00
       C17          C  0.1371620  0.9536860  0.4999970    0.00000       Uiso       1.00
       C18          C  0.1173730  0.9771010  0.4999970    0.00000       Uiso       1.00
       C19          C  0.1579120  0.0238650  0.4999970    0.00000       Uiso       1.00
       C20          C  0.1371620  0.0463150  0.4999970    0.00000       Uiso       1.00
       C21          C  0.1173730  0.0228990  0.4999970    0.00000       Uiso       1.00
       C22          C  0.8420890  0.9761350  0.4999970    0.00000       Uiso       1.00
       C23          C  0.8628380  0.9536860  0.4999970    0.00000       Uiso       1.00
       C24          C  0.8826280  0.9771010  0.4999970    0.00000       Uiso       1.00
       O25          O  0.4033660  0.5388930  0.4999970    0.00000       Uiso       1.00
       O26          O  0.9033670  0.0388920  0.4999970    0.00000       Uiso       1.00
       O27          O  0.5966340  0.4611080  0.4999970    0.00000       Uiso       1.00
       O28          O  0.0966340  0.9611080  0.4999970    0.00000       Uiso       1.00
       O29          O  0.5966340  0.5388930  0.4999970    0.00000       Uiso       1.00
       O30          O  0.0966340  0.0388920  0.4999970    0.00000       Uiso       1.00
       O31          O  0.4033660  0.4611080  0.4999970    0.00000       Uiso       1.00
       O32          O  0.9033670  0.9611080  0.4999970    0.00000       Uiso       1.00
       B33          B  0.4171570  0.5000000  0.4999970    0.00000       Uiso       1.00
       B34          B  0.9171580  0.0000000  0.4999970    0.00000       Uiso       1.00
       B35          B  0.5828430  0.5000000  0.4999970    0.00000       Uiso       1.00
       B36          B  0.0828430  0.0000000  0.4999970    0.00000       Uiso       1.00
       C37          C  0.3216970  0.5475780  0.4999970    0.00000       Uiso       1.00
       C38          C  0.3011750  0.5237130  0.4999970    0.00000       Uiso       1.00
       C39          C  0.3209750  0.5949970  0.4999970    0.00000       Uiso       1.00
       C40          C  0.3010130  0.6178110  0.4999970    0.00000       Uiso       1.00
       C41          C  0.2813200  0.5949120  0.4999970    0.00000       Uiso       1.00
       C42          C  0.2811480  0.5486830  0.4999970    0.00000       Uiso       1.00
       C43          C  0.8216970  0.0475780  0.4999970    0.00000       Uiso       1.00
       C44          C  0.8011750  0.0237130  0.4999970    0.00000       Uiso       1.00
       C45          C  0.8209750  0.0949960  0.4999970    0.00000       Uiso       1.00
       C46          C  0.8010130  0.1178110  0.4999970    0.00000       Uiso       1.00
       C47          C  0.7813200  0.0949110  0.4999970    0.00000       Uiso       1.00
       C48          C  0.7811480  0.0486830  0.4999970    0.00000       Uiso       1.00
       C49          C  0.6783030  0.4524220  0.4999970    0.00000       Uiso       1.00
       C50          C  0.6988260  0.4762870  0.4999970    0.00000       Uiso       1.00
       C51          C  0.6790250  0.4050040  0.4999970    0.00000       Uiso       1.00
       C52          C  0.6989880  0.3821890  0.4999970    0.00000       Uiso       1.00
       C53          C  0.7186810  0.4050890  0.4999970    0.00000       Uiso       1.00
       C54          C  0.7188530  0.4513170  0.4999970    0.00000       Uiso       1.00
       C55          C  0.1783030  0.9524230  0.4999970    0.00000       Uiso       1.00
       C56          C  0.1988260  0.9762870  0.4999970    0.00000       Uiso       1.00
       C57          C  0.1790250  0.9050040  0.4999970    0.00000       Uiso       1.00
       C58          C  0.1989870  0.8821890  0.4999970    0.00000       Uiso       1.00
       C59          C  0.2186800  0.9050890  0.4999970    0.00000       Uiso       1.00
       C60          C  0.2188530  0.9513170  0.4999970    0.00000       Uiso       1.00
       C61          C  0.6783030  0.5475780  0.4999970    0.00000       Uiso       1.00
       C62          C  0.6988260  0.5237130  0.4999970    0.00000       Uiso       1.00
       C63          C  0.6790250  0.5949970  0.4999970    0.00000       Uiso       1.00
       C64          C  0.6989880  0.6178110  0.4999970    0.00000       Uiso       1.00
       C65          C  0.7186810  0.5949120  0.4999970    0.00000       Uiso       1.00
       C66          C  0.7188530  0.5486830  0.4999970    0.00000       Uiso       1.00
       C67          C  0.1783030  0.0475780  0.4999970    0.00000       Uiso       1.00
       C68          C  0.1988260  0.0237130  0.4999970    0.00000       Uiso       1.00
       C69          C  0.1790250  0.0949960  0.4999970    0.00000       Uiso       1.00
       C70          C  0.1989870  0.1178110  0.4999970    0.00000       Uiso       1.00
       C71          C  0.2186800  0.0949110  0.4999970    0.00000       Uiso       1.00
       C72          C  0.2188530  0.0486830  0.4999970    0.00000       Uiso       1.00
       C73          C  0.3216970  0.4524220  0.4999970    0.00000       Uiso       1.00
       C74          C  0.3011750  0.4762870  0.4999970    0.00000       Uiso       1.00
       C75          C  0.3209750  0.4050040  0.4999970    0.00000       Uiso       1.00
       C76          C  0.3010130  0.3821890  0.4999970    0.00000       Uiso       1.00
       C77          C  0.2813200  0.4050890  0.4999970    0.00000       Uiso       1.00
       C78          C  0.2811480  0.4513170  0.4999970    0.00000       Uiso       1.00
       C79          C  0.8216970  0.9524230  0.4999970    0.00000       Uiso       1.00
       C80          C  0.8011750  0.9762870  0.4999970    0.00000       Uiso       1.00
       C81          C  0.8209750  0.9050040  0.4999970    0.00000       Uiso       1.00
       C82          C  0.8010130  0.8821890  0.4999970    0.00000       Uiso       1.00
       C83          C  0.7813200  0.9050890  0.4999970    0.00000       Uiso       1.00
       C84          C  0.7811480  0.9513170  0.4999970    0.00000       Uiso       1.00
       O85          O  0.2640720  0.6230900  0.4999970    0.00000       Uiso       1.00
       O86          O  0.7640720  0.1230890  0.4999970    0.00000       Uiso       1.00
       O87          O  0.7359290  0.3769110  0.4999970    0.00000       Uiso       1.00
       O88          O  0.2359290  0.8769110  0.4999970    0.00000       Uiso       1.00
       O89          O  0.7359290  0.6230900  0.4999970    0.00000       Uiso       1.00
       O90          O  0.2359290  0.1230890  0.4999970    0.00000       Uiso       1.00
       O91          O  0.2640720  0.3769110  0.4999970    0.00000       Uiso       1.00
       O92          O  0.7640720  0.8769110  0.4999970    0.00000       Uiso       1.00
       B93          B  0.2739060  0.6665840  0.4999970    0.00000       Uiso       1.00
       B94          B  0.7739061  0.1665840  0.4999970    0.00000       Uiso       1.00
       B95          B  0.7260950  0.3334160  0.4999970    0.00000       Uiso       1.00
       B96          B  0.2260940  0.8334170  0.4999970    0.00000       Uiso       1.00
       B97          B  0.7260950  0.6665840  0.4999970    0.00000       Uiso       1.00
       B98          B  0.2260940  0.1665840  0.4999970    0.00000       Uiso       1.00
       B99          B  0.2739060  0.3334160  0.4999970    0.00000       Uiso       1.00
      B100          B  0.7739061  0.8334170  0.4999970    0.00000       Uiso       1.00
      O101          O  0.2975240  0.6619870  0.4999970    0.00000       Uiso       1.00
      O102          O  0.7975240  0.1619870  0.4999970    0.00000       Uiso       1.00
      O103          O  0.7024770  0.3380140  0.4999970    0.00000       Uiso       1.00
      O104          O  0.2024770  0.8380140  0.4999970    0.00000       Uiso       1.00
      O105          O  0.7024770  0.6619870  0.4999970    0.00000       Uiso       1.00
      O106          O  0.2024770  0.1619870  0.4999970    0.00000       Uiso       1.00
      O107          O  0.2975240  0.3380140  0.4999970    0.00000       Uiso       1.00
      O108          O  0.7975240  0.8380140  0.4999970    0.00000       Uiso       1.00
      H109          H  0.3644780  0.4202170  0.4999970    0.00000       Uiso       1.00
      H110          H  0.3644780  0.5797830  0.4999970    0.00000       Uiso       1.00
      H111          H  0.3345460  0.6145900  0.4999970    0.00000       Uiso       1.00
      H112          H  0.3345460  0.3854100  0.4999970    0.00000       Uiso       1.00
      H113          H  0.2659380  0.5348090  0.4999970    0.00000       Uiso       1.00
      H114          H  0.2659380  0.4651910  0.4999970    0.00000       Uiso       1.00
      H115          H  0.8644780  0.9202180  0.4999970    0.00000       Uiso       1.00
      H116          H  0.8345460  0.8854100  0.4999970    0.00000       Uiso       1.00
      H117          H  0.7659380  0.9651910  0.4999970    0.00000       Uiso       1.00
      H118          H  0.6355220  0.5797830  0.4999970    0.00000       Uiso       1.00
      H119          H  0.6355220  0.4202170  0.4999970    0.00000       Uiso       1.00
      H120          H  0.6654550  0.3854100  0.4999970    0.00000       Uiso       1.00
      H121          H  0.6654550  0.6145900  0.4999970    0.00000       Uiso       1.00
      H122          H  0.7340630  0.4651910  0.4999970    0.00000       Uiso       1.00
      H123          H  0.7340630  0.5348090  0.4999970    0.00000       Uiso       1.00
      H124          H  0.1355220  0.0797830  0.4999970    0.00000       Uiso       1.00
      H125          H  0.1654550  0.1145900  0.4999970    0.00000       Uiso       1.00
      H126          H  0.2340630  0.0348090  0.4999970    0.00000       Uiso       1.00
      H127          H  0.1355220  0.9202180  0.4999970    0.00000       Uiso       1.00
      H128          H  0.1654550  0.8854100  0.4999970    0.00000       Uiso       1.00
      H129          H  0.2340630  0.9651910  0.4999970    0.00000       Uiso       1.00
      H130          H  0.8644780  0.0797830  0.4999970    0.00000       Uiso       1.00
      H131          H  0.8345460  0.1145900  0.4999970    0.00000       Uiso       1.00
      H132          H  0.7659380  0.0348090  0.4999970    0.00000       Uiso       1.00
      C133          C  0.5583620  0.5000000  0.4999970    0.00000       Uiso       1.00
      C134          C  0.0583620  0.0000000  0.4999970    0.00000       Uiso       1.00
      C135          C  0.4416380  0.5000000  0.4999970    0.00000       Uiso       1.00
      C136          C  0.9416390  0.0000000  0.4999970    0.00000       Uiso       1.00
      C137          C  0.5466589  0.5403580  0.4999970    0.00000       Uiso       1.00
      C138          C  0.0466590  0.0403580  0.4999970    0.00000       Uiso       1.00
      C139          C  0.4533420  0.4596420  0.4999970    0.00000       Uiso       1.00
      C140          C  0.9533420  0.9596420  0.4999970    0.00000       Uiso       1.00
      C141          C  0.4533420  0.5403580  0.4999970    0.00000       Uiso       1.00
      C142          C  0.9533420  0.0403580  0.4999970    0.00000       Uiso       1.00
      C143          C  0.5466589  0.4596420  0.4999970    0.00000       Uiso       1.00
      C144          C  0.0466590  0.9596420  0.4999970    0.00000       Uiso       1.00
      C145          C  0.5234190  0.4592270  0.4999970    0.00000       Uiso       1.00
      C146          C  0.0234190  0.9592270  0.4999970    0.00000       Uiso       1.00
      C147          C  0.4765810  0.5407740  0.4999970    0.00000       Uiso       1.00
      C148          C  0.9765820  0.0407740  0.4999970    0.00000       Uiso       1.00
      C149          C  0.4765810  0.4592270  0.4999970    0.00000       Uiso       1.00
      C150          C  0.9765820  0.9592270  0.4999970    0.00000       Uiso       1.00
      C151          C  0.5234190  0.5407740  0.4999970    0.00000       Uiso       1.00
      C152          C  0.0234190  0.0407740  0.4999970    0.00000       Uiso       1.00
      H153          H  0.5551450  0.5696790  0.4999970    0.00000       Uiso       1.00
      H154          H  0.0551450  0.0696790  0.4999970    0.00000       Uiso       1.00
      H155          H  0.4448550  0.4303210  0.4999970    0.00000       Uiso       1.00
      H156          H  0.9448560  0.9303210  0.4999970    0.00000       Uiso       1.00
      H157          H  0.4448550  0.5696790  0.4999970    0.00000       Uiso       1.00
      H158          H  0.9448560  0.0696790  0.4999970    0.00000       Uiso       1.00
      H159          H  0.5551450  0.4303210  0.4999970    0.00000       Uiso       1.00
      H160          H  0.0551450  0.9303210  0.4999970    0.00000       Uiso       1.00
      C161          C  0.5117090  0.5000000  0.4999970    0.00000       Uiso       1.00
      C162          C  0.0117080  0.0000000  0.4999970    0.00000       Uiso       1.00
      C163          C  0.4882920  0.5000000  0.4999970    0.00000       Uiso       1.00
      C164          C  0.9882920  0.0000000  0.4999970    0.00000       Uiso       1.00
      C165          C  0.4884410  0.5809740  0.4999970    0.00000       Uiso       1.00
      C166          C  0.9884410  0.0809740  0.4999970    0.00000       Uiso       1.00
      C167          C  0.5115600  0.4190260  0.4999970    0.00000       Uiso       1.00
      C168          C  0.0115600  0.9190260  0.4999970    0.00000       Uiso       1.00
      C169          C  0.5115600  0.5809740  0.4999970    0.00000       Uiso       1.00
      C170          C  0.0115600  0.0809740  0.4999970    0.00000       Uiso       1.00
      C171          C  0.4884410  0.4190260  0.4999970    0.00000       Uiso       1.00
      C172          C  0.9884410  0.9190260  0.4999970    0.00000       Uiso       1.00
      C173          C  0.2383290  0.2092730  0.4999970    0.00000       Uiso       1.00
      C174          C  0.7383290  0.7092740  0.4999970    0.00000       Uiso       1.00
      C175          C  0.7616720  0.7907270  0.4999970    0.00000       Uiso       1.00
      C176          C  0.2616710  0.2907270  0.4999970    0.00000       Uiso       1.00
      C177          C  0.7616720  0.2092730  0.4999970    0.00000       Uiso       1.00
      C178          C  0.2616710  0.7092740  0.4999970    0.00000       Uiso       1.00
      C179          C  0.2383290  0.7907270  0.4999970    0.00000       Uiso       1.00
      C180          C  0.7383290  0.2907270  0.4999970    0.00000       Uiso       1.00
      C181          C  0.2268730  0.2499670  0.4999970    0.00000       Uiso       1.00
      C182          C  0.7268740  0.7499670  0.4999970    0.00000       Uiso       1.00
      C183          C  0.7731270  0.7500340  0.4999970    0.00000       Uiso       1.00
      C184          C  0.2731270  0.2500330  0.4999970    0.00000       Uiso       1.00
      C185          C  0.7731270  0.2499670  0.4999970    0.00000       Uiso       1.00
      C186          C  0.2731270  0.7499670  0.4999970    0.00000       Uiso       1.00
      C187          C  0.2268730  0.7500340  0.4999970    0.00000       Uiso       1.00
      C188          C  0.7268740  0.2500330  0.4999970    0.00000       Uiso       1.00
      C189          C  0.2384470  0.2903530  0.4999970    0.00000       Uiso       1.00
      C190          C  0.7384470  0.7903530  0.4999970    0.00000       Uiso       1.00
      C191          C  0.7615530  0.7096470  0.4999970    0.00000       Uiso       1.00
      C192          C  0.2615530  0.2096470  0.4999970    0.00000       Uiso       1.00
      C193          C  0.7615530  0.2903530  0.4999970    0.00000       Uiso       1.00
      C194          C  0.2615530  0.7903530  0.4999970    0.00000       Uiso       1.00
      C195          C  0.2384470  0.7096470  0.4999970    0.00000       Uiso       1.00
      C196          C  0.7384470  0.2096470  0.4999970    0.00000       Uiso       1.00
      H197          H  0.2100380  0.2506420  0.4999970    0.00000       Uiso       1.00
      H198          H  0.7100380  0.7506420  0.4999970    0.00000       Uiso       1.00
      H199          H  0.7899630  0.7493590  0.4999970    0.00000       Uiso       1.00
      H200          H  0.2899630  0.2493590  0.4999970    0.00000       Uiso       1.00
      H201          H  0.7899630  0.2506420  0.4999970    0.00000       Uiso       1.00
      H202          H  0.2899630  0.7506420  0.4999970    0.00000       Uiso       1.00
      H203          H  0.2100380  0.7493590  0.4999970    0.00000       Uiso       1.00
      H204          H  0.7100380  0.2493590  0.4999970    0.00000       Uiso       1.00
      H205          H  0.2702640  0.8193790  0.4999970    0.00000       Uiso       1.00
      H206          H  0.7702640  0.3193790  0.4999970    0.00000       Uiso       1.00
      H207          H  0.7297370  0.1806210  0.4999970    0.00000       Uiso       1.00
      H208          H  0.2297360  0.6806210  0.4999970    0.00000       Uiso       1.00
      H209          H  0.7297370  0.8193790  0.4999970    0.00000       Uiso       1.00
      H210          H  0.2297360  0.3193790  0.4999970    0.00000       Uiso       1.00
      H211          H  0.2702640  0.1806210  0.4999970    0.00000       Uiso       1.00
      H212          H  0.7702640  0.6806210  0.4999970    0.00000       Uiso       1.00
      H213          H  0.4803280  0.6107050  0.4999970    0.00000       Uiso       1.00
      H214          H  0.9803290  0.1107050  0.4999970    0.00000       Uiso       1.00
      H215          H  0.5196720  0.3892950  0.4999970    0.00000       Uiso       1.00
      H216          H  0.0196720  0.8892950  0.4999970    0.00000       Uiso       1.00
      H217          H  0.5196720  0.6107050  0.4999970    0.00000       Uiso       1.00
      H218          H  0.0196720  0.1107050  0.4999970    0.00000       Uiso       1.00
      H219          H  0.4803280  0.3892950  0.4999970    0.00000       Uiso       1.00
      H220          H  0.9803290  0.8892950  0.4999970    0.00000       Uiso       1.00
