data_MC-COF-TP-E22E41
_audit_creation_date              0000-00-00
_audit_creation_method            'LanYouShi'
_symmetry_space_group_name_H-M    'P1'
_cell_length_a                    30.2094002
_cell_length_b                    3.5107000
_cell_length_c                    31.4934998
_cell_angle_alpha                 90.0000000
_cell_angle_beta                  116.1611023
_cell_angle_gamma                 90.0000000
loop_
_atom_site_label
_atom_site_type_symbol
_atom_site_fract_x
_atom_site_fract_y
_atom_site_fract_z
_atom_site_U_iso_or_equiv
_atom_site_adp_type
_atom_site_occupancy
        C1          C  0.4879910  0.4999950  0.5277980    0.00000       Uiso       1.00
        C2          C  0.5356470  0.4999950  0.5277940    0.00000       Uiso       1.00
        C3          C  0.5785730  0.4999950  0.5724019    0.00000       Uiso       1.00
        C4          C  0.5747500  0.4999950  0.6149460    0.00000       Uiso       1.00
        C5          C  0.5290160  0.4999950  0.6149510    0.00000       Uiso       1.00
        C6          C  0.4860800  0.4999950  0.5724090    0.00000       Uiso       1.00
        O7          O  0.5335350  0.4999950  0.6595360    0.00000       Uiso       1.00
        B8          B  0.5860040  0.4999950  0.6891710    0.00000       Uiso       1.00
        O9          O  0.6112200  0.4999950  0.6595260    0.00000       Uiso       1.00
       C10          C  0.4441780  0.4999950  0.4839540    0.00000       Uiso       1.00
       C11          C  0.4476900  0.4999950  0.4398110    0.00000       Uiso       1.00
       C12          C  0.3961420  0.4999950  0.4824430    0.00000       Uiso       1.00
       C13          C  0.3536460  0.4999950  0.4395530    0.00000       Uiso       1.00
       C14          C  0.3569370  0.4999950  0.3971690    0.00000       Uiso       1.00
       C15          C  0.4029340  0.4999950  0.3967660    0.00000       Uiso       1.00
       O16          O  0.3116570  0.4999950  0.3601870    0.00000       Uiso       1.00
       B17          B  0.2780230  0.4999950  0.3814380    0.00000       Uiso       1.00
       O18          O  0.3061560  0.4999950  0.4321780    0.00000       Uiso       1.00
       C19          C  0.5391500  0.4999950  0.4839460    0.00000       Uiso       1.00
       C20          C  0.4950530  0.4999950  0.4398070    0.00000       Uiso       1.00
       C21          C  0.5002310  0.4999950  0.3967590    0.00000       Uiso       1.00
       C22          C  0.5465950  0.4999950  0.3971540    0.00000       Uiso       1.00
       C23          C  0.5888530  0.4999950  0.4395340    0.00000       Uiso       1.00
       C24          C  0.5857930  0.4999950  0.4824270    0.00000       Uiso       1.00
       O25          O  0.6295580  0.4999950  0.4321490    0.00000       Uiso       1.00
       B26          B  0.6110390  0.4999950  0.3814090    0.00000       Uiso       1.00
       O27          O  0.5578690  0.4999950  0.3601660    0.00000       Uiso       1.00
       H28          H  0.6136180  0.4999950  0.5759340    0.00000       Uiso       1.00
       H29          H  0.4542840  0.4999950  0.5759460    0.00000       Uiso       1.00
       H30          H  0.3899860  0.4999950  0.5116160    0.00000       Uiso       1.00
       H31          H  0.4017600  0.4999950  0.3640670    0.00000       Uiso       1.00
       H32          H  0.4713420  0.4999950  0.3640620    0.00000       Uiso       1.00
       H33          H  0.6187700  0.4999950  0.5115980    0.00000       Uiso       1.00
       C34          C  0.8534570  0.4999950  0.1313920    0.00000       Uiso       1.00
       C35          C  0.8057790  0.4999950  0.1313880    0.00000       Uiso       1.00
       C36          C  0.7628610  0.4999950  0.0867860    0.00000       Uiso       1.00
       C37          C  0.7667000  0.4999950  0.0442470    0.00000       Uiso       1.00
       C38          C  0.8124410  0.4999950  0.0442480    0.00000       Uiso       1.00
       C39          C  0.8553810  0.4999950  0.0867920    0.00000       Uiso       1.00
       O40          O  0.8079230  0.4999950  0.9996640    0.00000       Uiso       1.00
       B41          B  0.7554550  0.4999950  0.9700230    0.00000       Uiso       1.00
       O42          O  0.7302360  0.4999950  0.9996650    0.00000       Uiso       1.00
       C43          C  0.8973000  0.4999950  0.1752180    0.00000       Uiso       1.00
       C44          C  0.8937020  0.4999950  0.2193100    0.00000       Uiso       1.00
       C45          C  0.9454040  0.4999950  0.1768130    0.00000       Uiso       1.00
       C46          C  0.9879080  0.4999950  0.2197560    0.00000       Uiso       1.00
       C47          C  0.9843760  0.4999950  0.2620210    0.00000       Uiso       1.00
       C48          C  0.9383930  0.4999950  0.2623730    0.00000       Uiso       1.00
       O49          O  0.0294650  0.4999950  0.2991520    0.00000       Uiso       1.00
       B50          B  0.0633760  0.4999950  0.2782390    0.00000       Uiso       1.00
       O51          O  0.0355500  0.4999950  0.2274430    0.00000       Uiso       1.00
       C52          C  0.8022150  0.4999950  0.1752100    0.00000       Uiso       1.00
       C53          C  0.8463430  0.4999950  0.2193060    0.00000       Uiso       1.00
       C54          C  0.8412310  0.4999950  0.2623650    0.00000       Uiso       1.00
       C55          C  0.7949210  0.4999950  0.2620050    0.00000       Uiso       1.00
       C56          C  0.7525370  0.4999950  0.2197370    0.00000       Uiso       1.00
       C57          C  0.7555740  0.4999950  0.1767980    0.00000       Uiso       1.00
       O58          O  0.7119580  0.4999950  0.2274190    0.00000       Uiso       1.00
       B59          B  0.7308230  0.4999950  0.2782140    0.00000       Uiso       1.00
       O60          O  0.7839590  0.4999950  0.2991320    0.00000       Uiso       1.00
       H61          H  0.7278190  0.4999950  0.0832710    0.00000       Uiso       1.00
       H62          H  0.8871930  0.4999950  0.0832820    0.00000       Uiso       1.00
       H63          H  0.9515760  0.4999950  0.1476460    0.00000       Uiso       1.00
       H64          H  0.9395730  0.4999950  0.2950710    0.00000       Uiso       1.00
       H65          H  0.8701060  0.4999950  0.2950650    0.00000       Uiso       1.00
       H66          H  0.7225930  0.4999950  0.1476280    0.00000       Uiso       1.00
       C67          C  0.7312540  0.4999950  0.9174060    0.00000       Uiso       1.00
       C68          C  0.7372630  0.4999950  0.8424520    0.00000       Uiso       1.00
       C69          C  0.6793590  0.4999950  0.8921490    0.00000       Uiso       1.00
       C70          C  0.7599570  0.4999950  0.8922011    0.00000       Uiso       1.00
       C71          C  0.6561090  0.4999950  0.8421780    0.00000       Uiso       1.00
       H72          H  0.7589400  0.4999950  0.8250070    0.00000       Uiso       1.00
       H73          H  0.6582770  0.4999950  0.9101910    0.00000       Uiso       1.00
       H74          H  0.7976570  0.4999950  0.9098210    0.00000       Uiso       1.00
       C75          C  0.6102050  0.4999950  0.7417870    0.00000       Uiso       1.00
       C76          C  0.6041950  0.4999950  0.8167400    0.00000       Uiso       1.00
       C77          C  0.6620990  0.4999950  0.7670430    0.00000       Uiso       1.00
       C78          C  0.5815010  0.4999950  0.7669910    0.00000       Uiso       1.00
       C79          C  0.6853490  0.4999950  0.8170131    0.00000       Uiso       1.00
       H80          H  0.5825120  0.4999950  0.8341780    0.00000       Uiso       1.00
       H81          H  0.6831770  0.4999950  0.7489940    0.00000       Uiso       1.00
       H82          H  0.5437990  0.4999950  0.7493629    0.00000       Uiso       1.00
       C83          C  0.7004890  0.4999950  0.3047490    0.00000       Uiso       1.00
       C84          C  0.6194210  0.4999950  0.3052910    0.00000       Uiso       1.00
       C85          C  0.7224400  0.4999950  0.3546490    0.00000       Uiso       1.00
       C86          C  0.6484310  0.4999950  0.2803610    0.00000       Uiso       1.00
       C87          C  0.6937900  0.4999950  0.3793250    0.00000       Uiso       1.00
       N88          N  0.7707320  0.4999950  0.3841130    0.00000       Uiso       1.00
       S89          S  0.7828300  0.4999950  0.4417070    0.00000       Uiso       1.00
       N90          N  0.7218510  0.4999950  0.4262180    0.00000       Uiso       1.00
       H91          H  0.5818230  0.4999950  0.2865470    0.00000       Uiso       1.00
       H92          H  0.6311410  0.4999950  0.2441760    0.00000       Uiso       1.00
       C93          C  0.6417930  0.4999950  0.3552960    0.00000       Uiso       1.00
       C94          C  0.1181020  0.4999950  0.3047680    0.00000       Uiso       1.00
       C95          C  0.2232630  0.4999950  0.3553380    0.00000       Uiso       1.00
       C96          C  0.1477070  0.4999950  0.2803400    0.00000       Uiso       1.00
       C97          C  0.1933760  0.4999950  0.3793700    0.00000       Uiso       1.00
       C98          C  0.1996290  0.4999950  0.3053390    0.00000       Uiso       1.00
       C99          C  0.1420410  0.4999950  0.3546850    0.00000       Uiso       1.00
      N100          N  0.2084190  0.4999950  0.4262620    0.00000       Uiso       1.00
      S101          S  0.1616730  0.4999950  0.4417430    0.00000       Uiso       1.00
      N102          N  0.1208310  0.4999950  0.3841460    0.00000       Uiso       1.00
      H103          H  0.1317770  0.4999950  0.2441460    0.00000       Uiso       1.00
      H104          H  0.2200350  0.4999950  0.2866430    0.00000       Uiso       1.00
