data_NN-TAPH-COF
_audit_creation_date              0000-00-00
_audit_creation_method            'LanYouShi'
_symmetry_space_group_name_H-M    'P1'
_cell_length_a                    25.8040009
_cell_length_b                    6.7470002
_cell_length_c                    26.2324009
_cell_angle_alpha                 90.0000000
_cell_angle_beta                  101.7366028
_cell_angle_gamma                 90.0000000
loop_
_atom_site_label
_atom_site_type_symbol
_atom_site_fract_x
_atom_site_fract_y
_atom_site_fract_z
_atom_site_U_iso_or_equiv
_atom_site_adp_type
_atom_site_occupancy
        C1          C  0.0915700  0.4680910  0.0787510    0.00000       Uiso       1.00
        C2          C  0.5775510  0.3569000  0.5486950    0.00000       Uiso       1.00
        C3          C  0.0170070  0.5422490  0.9885970    0.00000       Uiso       1.00
        C4          C  0.5326210  0.7260290  0.5172700    0.00000       Uiso       1.00
        C5          C  0.5857130  0.6862150  0.5144670    0.00000       Uiso       1.00
        C6          C  0.0022660  0.5622960  0.0375700    0.00000       Uiso       1.00
        C7          C  0.5243570  0.3975580  0.5513870    0.00000       Uiso       1.00
        C8          C  0.1063970  0.4460980  0.0297400    0.00000       Uiso       1.00
        C9          C  0.4471240  0.6269950  0.5376080    0.00000       Uiso       1.00
       C10          C  0.0764050  0.4383190  0.9319800    0.00000       Uiso       1.00
       C11          C  0.6626980  0.4559750  0.5280720    0.00000       Uiso       1.00
       C12          C  0.0300940  0.5693120  0.1348310    0.00000       Uiso       1.00
       C13          C  0.6093750  0.5005140  0.5299480    0.00000       Uiso       1.00
       C14          C  0.0405580  0.5301960  0.0844530    0.00000       Uiso       1.00
       C15          C  0.5006380  0.5830810  0.5359450    0.00000       Uiso       1.00
       C16          C  0.0679490  0.4787880  0.9828991    0.00000       Uiso       1.00
       N17          N  0.6989000  0.5798540  0.5138870    0.00000       Uiso       1.00
       N18          N  0.0504130  0.4640910  0.1789250    0.00000       Uiso       1.00
       N19          N  0.4128250  0.4967870  0.5527610    0.00000       Uiso       1.00
       N20          N  0.0643380  0.5645930  0.8905010    0.00000       Uiso       1.00
       N21          N  0.1087270  0.5179670  0.4818490    0.00000       Uiso       1.00
       N22          N  0.0029970  0.5254550  0.5866740    0.00000       Uiso       1.00
       C23          C  0.0952580  0.5147040  0.4287670    0.00000       Uiso       1.00
       C24          C  0.9495900  0.5300400  0.5692320    0.00000       Uiso       1.00
       C25          C  0.0164970  0.5302710  0.6397370    0.00000       Uiso       1.00
       C26          C  0.1621390  0.5197270  0.4993220    0.00000       Uiso       1.00
       C27          C  0.1429010  0.5153890  0.4114900    0.00000       Uiso       1.00
       C28          C  0.9282150  0.5396110  0.6140820    0.00000       Uiso       1.00
       C29          C  0.9689650  0.5381990  0.6571140    0.00000       Uiso       1.00
       C30          C  0.1835980  0.5171190  0.4544800    0.00000       Uiso       1.00
       H31          H  0.1477490  0.5143350  0.3737970    0.00000       Uiso       1.00
       H32          H  0.8890430  0.5466670  0.6156630    0.00000       Uiso       1.00
       H33          H  0.9644170  0.5429510  0.6949050    0.00000       Uiso       1.00
       H34          H  0.2227830  0.5160840  0.4527960    0.00000       Uiso       1.00
       N35          N  0.9924190  0.5212330  0.4668540    0.00000       Uiso       1.00
       N36          N  0.1193450  0.5225990  0.6016560    0.00000       Uiso       1.00
       C37          C  0.9974630  0.5131540  0.4161130    0.00000       Uiso       1.00
       C38          C  0.9408820  0.5200570  0.4716700    0.00000       Uiso       1.00
       C39          C  0.1143280  0.5250720  0.6524170    0.00000       Uiso       1.00
       C40          C  0.1708790  0.5228180  0.5969030    0.00000       Uiso       1.00
       C41          C  0.9460440  0.5057030  0.3867710    0.00000       Uiso       1.00
       C42          C  0.9114690  0.5101310  0.4207400    0.00000       Uiso       1.00
       C43          C  0.1657460  0.5261260  0.6818580    0.00000       Uiso       1.00
       C44          C  0.2003210  0.5248800  0.6478859    0.00000       Uiso       1.00
       H45          H  0.9353820  0.4977970  0.3471230    0.00000       Uiso       1.00
       H46          H  0.8711510  0.5059070  0.4098680    0.00000       Uiso       1.00
       H47          H  0.1764340  0.5282040  0.7215480    0.00000       Uiso       1.00
       H48          H  0.2406440  0.5256700  0.6588650    0.00000       Uiso       1.00
       C49          C  0.0443020  0.5107640  0.3952540    0.00000       Uiso       1.00
       C50          C  0.9189280  0.5264440  0.5173660    0.00000       Uiso       1.00
       C51          C  0.0674690  0.5285470  0.6731730    0.00000       Uiso       1.00
       C52          C  0.1927900  0.5220940  0.5511860    0.00000       Uiso       1.00
       C53          C  0.0413910  0.5014150  0.3399990    0.00000       Uiso       1.00
       C54          C  0.8627190  0.5309910  0.5119640    0.00000       Uiso       1.00
       C55          C  0.0705400  0.5338270  0.7284230    0.00000       Uiso       1.00
       C56          C  0.2489620  0.5224360  0.5564710    0.00000       Uiso       1.00
       C57          C  0.0527990  0.3227490  0.3159530    0.00000       Uiso       1.00
       C58          C  0.0302500  0.6699640  0.3071390    0.00000       Uiso       1.00
       C59          C  0.8341380  0.7098781  0.5003660    0.00000       Uiso       1.00
       C60          C  0.8340480  0.3604170  0.5213650    0.00000       Uiso       1.00
       C61          C  0.0751680  0.3589300  0.7592050    0.00000       Uiso       1.00
       C62          C  0.0662130  0.7151180  0.7547019    0.00000       Uiso       1.00
       C63          C  0.2765570  0.6981230  0.5491260    0.00000       Uiso       1.00
       C64          C  0.2786700  0.3450240  0.5656460    0.00000       Uiso       1.00
       H65          H  0.0603350  0.1962160  0.3377940    0.00000       Uiso       1.00
       H66          H  0.0214820  0.8023280  0.3225960    0.00000       Uiso       1.00
       H67          H  0.8533870  0.8357360  0.4927240    0.00000       Uiso       1.00
       H68          H  0.8531860  0.2274370  0.5292220    0.00000       Uiso       1.00
       H69          H  0.0788620  0.2245220  0.7421050    0.00000       Uiso       1.00
       H70          H  0.0635430  0.8458670  0.7344720    0.00000       Uiso       1.00
       H71          H  0.2565790  0.8299340  0.5432790    0.00000       Uiso       1.00
       H72          H  0.2602750  0.2157310  0.5719570    0.00000       Uiso       1.00
       C73          C  0.0552100  0.3150580  0.2624490    0.00000       Uiso       1.00
       C74          C  0.0319590  0.6610400  0.2533190    0.00000       Uiso       1.00
       C75          C  0.7793510  0.7192890  0.5003230    0.00000       Uiso       1.00
       C76          C  0.7793260  0.3708850  0.5215520    0.00000       Uiso       1.00
       C77          C  0.0740640  0.3649500  0.8131710    0.00000       Uiso       1.00
       C78          C  0.0644360  0.7199580  0.8083971    0.00000       Uiso       1.00
       C79          C  0.3311840  0.6942310  0.5483150    0.00000       Uiso       1.00
       C80          C  0.3333770  0.3421700  0.5652060    0.00000       Uiso       1.00
       H81          H  0.0643770  0.1831620  0.2469930    0.00000       Uiso       1.00
       H82          H  0.0240930  0.7863500  0.2312430    0.00000       Uiso       1.00
       H83          H  0.7599810  0.8514980  0.4923130    0.00000       Uiso       1.00
       H84          H  0.7602810  0.2452270  0.5292890    0.00000       Uiso       1.00
       H85          H  0.0773340  0.2352510  0.8336700    0.00000       Uiso       1.00
       H86          H  0.0604790  0.8538780  0.8255340    0.00000       Uiso       1.00
       H87          H  0.3492650  0.8237910  0.5422190    0.00000       Uiso       1.00
       H88          H  0.3535410  0.2111350  0.5716500    0.00000       Uiso       1.00
       C89          C  0.0453100  0.4837970  0.2298450    0.00000       Uiso       1.00
       C90          C  0.7509969  0.5518820  0.5120080    0.00000       Uiso       1.00
       C91          C  0.0679330  0.5457560  0.8390640    0.00000       Uiso       1.00
       C92          C  0.3605900  0.5153620  0.5553320    0.00000       Uiso       1.00
       H93          H  0.1197610  0.4426630  0.1115320    0.00000       Uiso       1.00
       H94          H  0.5926920  0.2203520  0.5611360    0.00000       Uiso       1.00
       H95          H  0.6067140  0.7952360  0.5002870    0.00000       Uiso       1.00
       H96          H  0.4329530  0.7640200  0.5246450    0.00000       Uiso       1.00
       O97          O  0.9498960  0.6095800  0.0328080    0.00000       Uiso       1.00
       H98          H  0.0918350  0.3024080  0.9262900    0.00000       Uiso       1.00
       C99          C  0.9127500  0.5560640  0.0607380    0.00000       Uiso       1.00
      O100          O  0.9257750  0.4377160  0.0980010    0.00000       Uiso       1.00
      H101          H  0.9887170  0.5698380  0.9560240    0.00000       Uiso       1.00
      H102          H  0.5173000  0.8621230  0.5050670    0.00000       Uiso       1.00
      H103          H  0.5027760  0.2902990  0.5653290    0.00000       Uiso       1.00
      O104          O  0.1592870  0.4031040  0.0366570    0.00000       Uiso       1.00
      H105          H  0.0043210  0.6818550  0.1377780    0.00000       Uiso       1.00
      C106          C  0.1972120  0.3872800  1.0072761    0.00000       Uiso       1.00
      O107          O  0.1854230  0.4073710  0.9589159    0.00000       Uiso       1.00
      C108          C  0.6373960  0.3517470  0.1931020    0.00000       Uiso       1.00
      C109          C  0.5830610  0.3964580  0.1805740    0.00000       Uiso       1.00
      C110          C  0.5623130  0.5108030  0.1364190    0.00000       Uiso       1.00
      C111          C  0.5957860  0.5781500  0.1036050    0.00000       Uiso       1.00
      C112          C  0.6504750  0.5324140  0.1149380    0.00000       Uiso       1.00
      C113          C  0.6704710  0.4191360  0.1601800    0.00000       Uiso       1.00
      N114          N  0.6816910  0.5987540  0.0827520    0.00000       Uiso       1.00
      N115          N  0.7327910  0.5699440  0.0905480    0.00000       Uiso       1.00
      C116          C  0.7517550  0.7442310  0.0154000    0.00000       Uiso       1.00
      C117          C  0.7672800  0.6298890  0.0610420    0.00000       Uiso       1.00
      C118          C  0.7890860  0.7985710  0.9855229    0.00000       Uiso       1.00
      C119          C  0.8422510  0.7382440  0.0009390    0.00000       Uiso       1.00
      C120          C  0.8594620  0.6224870  0.0465440    0.00000       Uiso       1.00
      C121          C  0.8209070  0.5721050  0.0762870    0.00000       Uiso       1.00
      H122          H  0.6525640  0.2696220  0.2255140    0.00000       Uiso       1.00
      H123          H  0.5584200  0.3457420  0.2037450    0.00000       Uiso       1.00
      H124          H  0.5227240  0.5446440  0.1283120    0.00000       Uiso       1.00
      H125          H  0.7775210  0.8818710  0.9524880    0.00000       Uiso       1.00
      H126          H  0.8685229  0.7793729  0.9782670    0.00000       Uiso       1.00
      H127          H  0.8316900  0.4893930  0.1095470    0.00000       Uiso       1.00
      C128          C  0.5180120  0.4289070  0.9239880    0.00000       Uiso       1.00
      C129          C  0.5667820  0.3461700  0.9495250    0.00000       Uiso       1.00
      C130          C  0.5698660  0.2383990  0.9959680    0.00000       Uiso       1.00
      C131          C  0.5244280  0.2164750  0.0170120    0.00000       Uiso       1.00
      C132          C  0.4756510  0.3028390  0.9933730    0.00000       Uiso       1.00
      C133          C  0.4727960  0.4072800  0.9460521    0.00000       Uiso       1.00
      N134          N  0.4342050  0.2858830  0.0175610    0.00000       Uiso       1.00
      N135          N  0.3846240  0.3320220  1.0000880    0.00000       Uiso       1.00
      C136          C  0.3586840  0.3049060  0.0834720    0.00000       Uiso       1.00
      C137          C  0.3463630  0.3264590  0.0287160    0.00000       Uiso       1.00
      C138          C  0.3184380  0.3054140  0.1123490    0.00000       Uiso       1.00
      C139          C  0.2653680  0.3297970  0.0868600    0.00000       Uiso       1.00
      C140          C  0.2510740  0.3553030  0.0320100    0.00000       Uiso       1.00
      C141          C  0.2927240  0.3514400  1.0037230    0.00000       Uiso       1.00
      H142          H  0.5158020  0.5049950  0.8895950    0.00000       Uiso       1.00
      H143          H  0.5997850  0.3630780  0.9337910    0.00000       Uiso       1.00
      H144          H  0.6050510  0.1756160  1.0139060    0.00000       Uiso       1.00
      H145          H  0.3278340  0.2891610  0.1519270    0.00000       Uiso       1.00
      H146          H  0.2370210  0.3299370  0.1090870    0.00000       Uiso       1.00
      H147          H  0.2842250  0.3687670  0.9639761    0.00000       Uiso       1.00
      H148          H  0.4375460  0.4686210  0.9275220    0.00000       Uiso       1.00
      H149          H  0.7130350  0.7876070  1.0040050    0.00000       Uiso       1.00
      H150          H  0.7097590  0.3851700  0.1692320    0.00000       Uiso       1.00
      H151          H  0.3974860  0.2906150  0.1024940    0.00000       Uiso       1.00
      H152          H  0.0799540  0.5179670  0.5080700    0.00000       Uiso       1.00
      H153          H  0.0320840  0.5254550  0.5607810    0.00000       Uiso       1.00
      H154          H  0.5797040  0.6616060  1.0718570    0.00000       Uiso       1.00
      H155          H  0.5296030  0.1387040  1.0509191    0.00000       Uiso       1.00
