data_NS-COF
_audit_creation_date              0000-00-00
_audit_creation_method            'LanYouShi'
_symmetry_space_group_name_H-M    'P1'
_cell_length_a                    34.7380981
_cell_length_b                    34.7380981
_cell_length_c                    3.5309999
_cell_angle_alpha                 90.0000000
_cell_angle_beta                  90.0000000
_cell_angle_gamma                 120.0000000
loop_
_atom_site_label
_atom_site_type_symbol
_atom_site_fract_x
_atom_site_fract_y
_atom_site_fract_z
_atom_site_U_iso_or_equiv
_atom_site_adp_type
_atom_site_occupancy
       xx1          C  0.3648800  0.7231200  0.0000000    0.00000       Uiso       1.00
       xx2          C  0.3089700  0.6975600  0.0000000    0.00000       Uiso       1.00
       xx3          O  0.4340800  0.7117300  0.0000000    0.00000       Uiso       1.00
       xx4          C  0.3778400  0.6038100  0.0000000    0.00000       Uiso       1.00
       xx5          N  0.4303300  0.6183700  0.0000000    0.00000       Uiso       1.00
       xx6          C  0.4494000  0.5838400  0.0000000    0.00000       Uiso       1.00
       xx7          C  0.4177900  0.5315500  0.0000000    0.00000       Uiso       1.00
       xx8          C  0.4373100  0.4993400  0.0000000    0.00000       Uiso       1.00
       xx9          C  0.4894200  0.5175800  0.0000000    0.00000       Uiso       1.00
      xx10          C  0.5209000  0.5701900  0.0000000    0.00000       Uiso       1.00
      xx11          C  0.5015300  0.6028800  0.0000000    0.00000       Uiso       1.00
      xx12          O  0.5341100  0.6547200  0.0000000    0.00000       Uiso       1.00
      xx13          H  0.5708900  0.6650600  0.0000000    0.00000       Uiso       1.00
      xx14          H  0.8018800  0.4576400  0.0000000    0.00000       Uiso       1.00
      xx15          H  0.4126300  0.9736200  0.0000000    0.00000       Uiso       1.00
      xx16          H  0.5399500  0.9500500  0.0000000    0.00000       Uiso       1.00
      xx17          H  0.4858700  0.8634900  0.0000000    0.00000       Uiso       1.00
      xx18          H  0.4356500  0.7871800  0.0000000    0.00000       Uiso       1.00
      xx19          C  0.2768800  0.6417601  0.0000000    0.00000       Uiso       1.00
      xx20          C  0.3024400  0.6114100  0.0000000    0.00000       Uiso       1.00
      xx21          O  0.2882700  0.7223500  0.0000000    0.00000       Uiso       1.00
      xx22          C  0.3961900  0.7740300  0.0000000    0.00000       Uiso       1.00
      xx23          N  0.3816300  0.8119600  0.0000000    0.00000       Uiso       1.00
      xx24          C  0.4161600  0.8655600  0.0000000    0.00000       Uiso       1.00
      xx25          C  0.4684500  0.8862400  0.0000000    0.00000       Uiso       1.00
      xx26          C  0.5006600  0.9379700  0.0000000    0.00000       Uiso       1.00
      xx27          C  0.4824200  0.9718400  0.0000000    0.00000       Uiso       1.00
      xx28          C  0.4298100  0.9507100  0.0000000    0.00000       Uiso       1.00
      xx29          C  0.3971200  0.8986500  0.0000000    0.00000       Uiso       1.00
      xx30          O  0.3452800  0.8793900  0.0000000    0.00000       Uiso       1.00
      xx31          H  0.3349400  0.9058300  0.0000000    0.00000       Uiso       1.00
      xx32          H  0.5423600  0.3442400  0.0000000    0.00000       Uiso       1.00
      xx33          H  0.0263800  0.4390100  0.0000000    0.00000       Uiso       1.00
      xx34          H  0.0499500  0.5899000  0.0000000    0.00000       Uiso       1.00
      xx35          H  0.1365100  0.6223800  0.0000000    0.00000       Uiso       1.00
      xx36          H  0.2128200  0.6484700  0.0000000    0.00000       Uiso       1.00
      xx37          C  0.3582400  0.6351200  0.0000000    0.00000       Uiso       1.00
      xx38          C  0.3885900  0.6910300  0.0000000    0.00000       Uiso       1.00
      xx39          O  0.2776500  0.5659199  0.0000000    0.00000       Uiso       1.00
      xx40          C  0.2259700  0.6221600  0.0000000    0.00000       Uiso       1.00
      xx41          N  0.1880400  0.5696700  0.0000000    0.00000       Uiso       1.00
      xx42          C  0.1344400  0.5506000  0.0000000    0.00000       Uiso       1.00
      xx43          C  0.1137600  0.5822100  0.0000000    0.00000       Uiso       1.00
      xx44          C  0.0620300  0.5626900  0.0000000    0.00000       Uiso       1.00
      xx45          C  0.0281600  0.5105800  0.0000000    0.00000       Uiso       1.00
      xx46          C  0.0492900  0.4791000  0.0000000    0.00000       Uiso       1.00
      xx47          C  0.1013500  0.4984700  0.0000000    0.00000       Uiso       1.00
      xx48          O  0.1206100  0.4658900  0.0000000    0.00000       Uiso       1.00
      xx49          H  0.0941700  0.4291100  0.0000000    0.00000       Uiso       1.00
      xx50          H  0.6557600  0.1981200  0.0000000    0.00000       Uiso       1.00
      xx51          H  0.5609900  0.5873700  0.0000000    0.00000       Uiso       1.00
      xx52          H  0.4101000  0.4600500  0.0000000    0.00000       Uiso       1.00
      xx53          H  0.3776200  0.5141300  0.0000000    0.00000       Uiso       1.00
      xx54          H  0.3515300  0.5643500  0.0000000    0.00000       Uiso       1.00
      xx55          C  0.6351200  0.2768800  0.0000000    0.00000       Uiso       1.00
      xx56          C  0.6910300  0.3024400  0.0000000    0.00000       Uiso       1.00
      xx57          O  0.5659200  0.2882700  0.0000000    0.00000       Uiso       1.00
      xx58          C  0.6221600  0.3961900  0.0000000    0.00000       Uiso       1.00
      xx59          N  0.5696700  0.3816300  0.0000000    0.00000       Uiso       1.00
      xx60          C  0.5506000  0.4161600  0.0000000    0.00000       Uiso       1.00
      xx61          C  0.5822100  0.4684500  0.0000000    0.00000       Uiso       1.00
      xx62          C  0.5626900  0.5006600  0.0000000    0.00000       Uiso       1.00
      xx63          C  0.5105800  0.4824200  0.0000000    0.00000       Uiso       1.00
      xx64          C  0.4791000  0.4298100  0.0000000    0.00000       Uiso       1.00
      xx65          C  0.4984700  0.3971200  0.0000000    0.00000       Uiso       1.00
      xx66          O  0.4658900  0.3452800  0.0000000    0.00000       Uiso       1.00
      xx67          H  0.4291100  0.3349400  0.0000000    0.00000       Uiso       1.00
      xx68          H  0.1981200  0.5423600  0.0000000    0.00000       Uiso       1.00
      xx69          H  0.5873700  0.0263800  0.0000000    0.00000       Uiso       1.00
      xx70          H  0.4600500  0.0499500  0.0000000    0.00000       Uiso       1.00
      xx71          H  0.5141300  0.1365100  0.0000000    0.00000       Uiso       1.00
      xx72          H  0.5643500  0.2128200  0.0000000    0.00000       Uiso       1.00
      xx73          C  0.7231200  0.3582400  0.0000000    0.00000       Uiso       1.00
      xx74          C  0.6975600  0.3885900  0.0000000    0.00000       Uiso       1.00
      xx75          O  0.7117300  0.2776500  0.0000000    0.00000       Uiso       1.00
      xx76          C  0.6038100  0.2259700  0.0000000    0.00000       Uiso       1.00
      xx77          N  0.6183700  0.1880400  0.0000000    0.00000       Uiso       1.00
      xx78          C  0.5838400  0.1344400  0.0000000    0.00000       Uiso       1.00
      xx79          C  0.5315500  0.1137600  0.0000000    0.00000       Uiso       1.00
      xx80          C  0.4993400  0.0620300  0.0000000    0.00000       Uiso       1.00
      xx81          C  0.5175800  0.0281600  0.0000000    0.00000       Uiso       1.00
      xx82          C  0.5701900  0.0492900  0.0000000    0.00000       Uiso       1.00
      xx83          C  0.6028800  0.1013500  0.0000000    0.00000       Uiso       1.00
      xx84          O  0.6547200  0.1206100  0.0000000    0.00000       Uiso       1.00
      xx85          H  0.6650600  0.0941700  0.0000000    0.00000       Uiso       1.00
      xx86          H  0.4576400  0.6557600  0.0000000    0.00000       Uiso       1.00
      xx87          H  0.9736200  0.5609900  0.0000000    0.00000       Uiso       1.00
      xx88          H  0.9500500  0.4101000  0.0000000    0.00000       Uiso       1.00
      xx89          H  0.8634900  0.3776200  0.0000000    0.00000       Uiso       1.00
      xx90          H  0.7871800  0.3515300  0.0000000    0.00000       Uiso       1.00
      xx91          C  0.6417600  0.3648800  0.0000000    0.00000       Uiso       1.00
      xx92          C  0.6114100  0.3089700  0.0000000    0.00000       Uiso       1.00
      xx93          O  0.7223500  0.4340800  0.0000000    0.00000       Uiso       1.00
      xx94          C  0.7740300  0.3778400  0.0000000    0.00000       Uiso       1.00
      xx95          N  0.8119599  0.4303300  0.0000000    0.00000       Uiso       1.00
      xx96          C  0.8655600  0.4494000  0.0000000    0.00000       Uiso       1.00
      xx97          C  0.8862400  0.4177900  0.0000000    0.00000       Uiso       1.00
      xx98          C  0.9379700  0.4373100  0.0000000    0.00000       Uiso       1.00
      xx99          C  0.9718400  0.4894200  0.0000000    0.00000       Uiso       1.00
     xx100          C  0.9507100  0.5209000  0.0000000    0.00000       Uiso       1.00
     xx101          C  0.8986500  0.5015300  0.0000000    0.00000       Uiso       1.00
     xx102          O  0.8793900  0.5341101  0.0000000    0.00000       Uiso       1.00
     xx103          H  0.9058300  0.5708900  0.0000000    0.00000       Uiso       1.00
     xx104          H  0.3442400  0.8018800  0.0000000    0.00000       Uiso       1.00
     xx105          H  0.4390100  0.4126300  0.0000000    0.00000       Uiso       1.00
     xx106          H  0.5899000  0.5399500  0.0000000    0.00000       Uiso       1.00
     xx107          H  0.6223800  0.4858700  0.0000000    0.00000       Uiso       1.00
     xx108          H  0.6484700  0.4356500  0.0000000    0.00000       Uiso       1.00
