data_NTU-COF-1
_audit_creation_date              0000-00-00
_audit_creation_method            'LanYouShi'
_symmetry_space_group_name_H-M    'P1'
_cell_length_a                    25.4689999
_cell_length_b                    25.4689999
_cell_length_c                    3.5260000
_cell_angle_alpha                 90.0000000
_cell_angle_beta                  90.0000000
_cell_angle_gamma                 120.0000000
loop_
_atom_site_label
_atom_site_type_symbol
_atom_site_fract_x
_atom_site_fract_y
_atom_site_fract_z
_atom_site_U_iso_or_equiv
_atom_site_adp_type
_atom_site_occupancy
        C1          C  0.4983700  0.3806600  0.5000000    0.00000       Uiso       1.00
        C2          C  0.5347900  0.3543100  0.5000000    0.00000       Uiso       1.00
        C3          C  0.5979900  0.3905900  0.5000000    0.00000       Uiso       1.00
        C4          C  0.6247300  0.4540800  0.5000000    0.00000       Uiso       1.00
        C5          C  0.5880800  0.4808400  0.5000000    0.00000       Uiso       1.00
        C6          C  0.5251200  0.4441500  0.5000000    0.00000       Uiso       1.00
        N7          N  0.4884700  0.4708900  0.5000000    0.00000       Uiso       1.00
        C8          C  0.4048900  0.6137200  0.5000000    0.00000       Uiso       1.00
        C9          C  0.4682800  0.6504500  0.5000000    0.00000       Uiso       1.00
       C10          C  0.3783400  0.5506800  0.5000000    0.00000       Uiso       1.00
       C11          C  0.5049200  0.6236900  0.5000000    0.00000       Uiso       1.00
       C12          C  0.4149900  0.5239400  0.5000000    0.00000       Uiso       1.00
       C13          C  0.4783700  0.5606600  0.5000000    0.00000       Uiso       1.00
       C14          C  0.5127900  0.5316100  0.5000000    0.00000       Uiso       1.00
       H15          H  0.4466800  0.3506600  0.5000000    0.00000       Uiso       1.00
       H16          H  0.5131000  0.3026200  0.5000000    0.00000       Uiso       1.00
       H17          H  0.6764200  0.4840100  0.5000000    0.00000       Uiso       1.00
       H18          H  0.6099000  0.5325300  0.5000000    0.00000       Uiso       1.00
       H19          H  0.4900200  0.7021400  0.5000000    0.00000       Uiso       1.00
       H20          H  0.3266500  0.5207500  0.5000000    0.00000       Uiso       1.00
       H21          H  0.5566200  0.6535800  0.5000000    0.00000       Uiso       1.00
       H22          H  0.3931800  0.4722400  0.5000000    0.00000       Uiso       1.00
       H23          H  0.5646400  0.5597200  0.5000000    0.00000       Uiso       1.00
       H24          H  0.7197900  0.4472100  0.5000000    0.00000       Uiso       1.00
       B25          B  0.3697500  0.6398500  0.5000000    0.00000       Uiso       1.00
       O26          O  0.3086500  0.6049700  0.5000000    0.00000       Uiso       1.00
       C27          C  0.6345100  0.3633800  0.5000000    0.00000       Uiso       1.00
       C28          C  0.6978100  0.3976700  0.5000000    0.00000       Uiso       1.00
       C29          C  0.6193400  0.1177100  0.5000000    0.00000       Uiso       1.00
       C30          C  0.6456900  0.1804800  0.5000000    0.00000       Uiso       1.00
       C31          C  0.6094100  0.2074000  0.5000000    0.00000       Uiso       1.00
       C32          C  0.5459200  0.1706500  0.5000000    0.00000       Uiso       1.00
       C33          C  0.5191600  0.1072400  0.5000000    0.00000       Uiso       1.00
       C34          C  0.5558500  0.0809700  0.5000000    0.00000       Uiso       1.00
       N35          N  0.5291100  0.0175800  0.5000000    0.00000       Uiso       1.00
       C36          C  0.3862800  0.7911700  0.5000000    0.00000       Uiso       1.00
       C37          C  0.3495500  0.8178300  0.5000000    0.00000       Uiso       1.00
       C38          C  0.4493200  0.8276601  0.5000000    0.00000       Uiso       1.00
       C39          C  0.3763100  0.8812300  0.5000000    0.00000       Uiso       1.00
       C40          C  0.4760600  0.8910499  0.5000000    0.00000       Uiso       1.00
       C41          C  0.4393400  0.9177100  0.5000000    0.00000       Uiso       1.00
       C42          C  0.4683900  0.9811801  0.5000000    0.00000       Uiso       1.00
       H43          H  0.6493400  0.0960200  0.5000000    0.00000       Uiso       1.00
       H44          H  0.6973800  0.2104800  0.5000000    0.00000       Uiso       1.00
       H45          H  0.5159900  0.1924100  0.5000000    0.00000       Uiso       1.00
       H46          H  0.4674700  0.0773700  0.5000000    0.00000       Uiso       1.00
       H47          H  0.2978600  0.7878800  0.5000000    0.00000       Uiso       1.00
       H48          H  0.4792500  0.8059000  0.5000000    0.00000       Uiso       1.00
       H49          H  0.3464200  0.9030400  0.5000000    0.00000       Uiso       1.00
       H50          H  0.5277600  0.9209400  0.5000000    0.00000       Uiso       1.00
       H51          H  0.4402800  0.0049200  0.5000000    0.00000       Uiso       1.00
       H52          H  0.5527900  0.2725800  0.5000000    0.00000       Uiso       1.00
       B53          B  0.3601500  0.7299000  0.5000000    0.00000       Uiso       1.00
       O54          O  0.3950300  0.7036800  0.5000000    0.00000       Uiso       1.00
       C55          C  0.6366200  0.2711300  0.5000000    0.00000       Uiso       1.00
       C56          C  0.6023300  0.3001400  0.5000000    0.00000       Uiso       1.00
       C57          C  0.8822900  0.5016300  0.5000000    0.00000       Uiso       1.00
       C58          C  0.8195200  0.4652100  0.5000000    0.00000       Uiso       1.00
       C59          C  0.7926000  0.4020100  0.5000000    0.00000       Uiso       1.00
       C60          C  0.8293500  0.3752700  0.5000000    0.00000       Uiso       1.00
       C61          C  0.8927600  0.4119200  0.5000000    0.00000       Uiso       1.00
       C62          C  0.9190300  0.4748800  0.5000000    0.00000       Uiso       1.00
       N63          N  0.9824200  0.5115300  0.5000000    0.00000       Uiso       1.00
       C64          C  0.2088300  0.5951100  0.5000000    0.00000       Uiso       1.00
       C65          C  0.1821700  0.5317200  0.5000000    0.00000       Uiso       1.00
       C66          C  0.1723400  0.6216600  0.5000000    0.00000       Uiso       1.00
       C67          C  0.1187700  0.4950800  0.5000000    0.00000       Uiso       1.00
       C68          C  0.1089500  0.5850100  0.5000000    0.00000       Uiso       1.00
       C69          C  0.0822900  0.5216300  0.5000000    0.00000       Uiso       1.00
       C70          C  0.0188200  0.4872100  0.5000000    0.00000       Uiso       1.00
       H71          H  0.9039800  0.5533200  0.5000000    0.00000       Uiso       1.00
       H72          H  0.7895200  0.4869000  0.5000000    0.00000       Uiso       1.00
       H73          H  0.8075900  0.3235800  0.5000000    0.00000       Uiso       1.00
       H74          H  0.9226300  0.3901000  0.5000000    0.00000       Uiso       1.00
       H75          H  0.2121200  0.5099800  0.5000000    0.00000       Uiso       1.00
       H76          H  0.1941000  0.6733500  0.5000000    0.00000       Uiso       1.00
       H77          H  0.0969600  0.4433800  0.5000000    0.00000       Uiso       1.00
       H78          H  0.0790600  0.6068200  0.5000000    0.00000       Uiso       1.00
       H79          H  0.9950800  0.4353600  0.5000000    0.00000       Uiso       1.00
       H80          H  0.7274200  0.2802100  0.5000000    0.00000       Uiso       1.00
       B81          B  0.2701000  0.6302500  0.5000000    0.00000       Uiso       1.00
       O82          O  0.2963200  0.6913500  0.5000000    0.00000       Uiso       1.00
       C83          C  0.7288700  0.3654900  0.5000000    0.00000       Uiso       1.00
       C84          C  0.6998600  0.3021900  0.5000000    0.00000       Uiso       1.00
