data_NTU-COF-2
_audit_creation_date              0000-00-00
_audit_creation_method            'LanYouShi'
_symmetry_space_group_name_H-M    'P1'
_cell_length_a                    33.7014008
_cell_length_b                    33.7014008
_cell_length_c                    3.5803001
_cell_angle_alpha                 90.0000000
_cell_angle_beta                  90.0000000
_cell_angle_gamma                 120.0000000
loop_
_atom_site_label
_atom_site_type_symbol
_atom_site_fract_x
_atom_site_fract_y
_atom_site_fract_z
_atom_site_U_iso_or_equiv
_atom_site_adp_type
_atom_site_occupancy
        C1          C  0.2877210  0.6597440  0.4999980    0.00000       Uiso       1.00
        C2          C  0.3402550  0.6279750  0.4999980    0.00000       Uiso       1.00
        C3          C  0.3720230  0.7122780  0.4999980    0.00000       Uiso       1.00
        C4          C  0.2947470  0.6209700  0.4999980    0.00000       Uiso       1.00
        C5          C  0.3790290  0.6737751  0.4999980    0.00000       Uiso       1.00
        C6          C  0.3262230  0.7052521  0.4999980    0.00000       Uiso       1.00
        C7          C  0.2553100  0.5760140  0.4999980    0.00000       Uiso       1.00
        C8          C  0.4239850  0.6792950  0.4999980    0.00000       Uiso       1.00
        C9          C  0.3207040  0.7446880  0.4999980    0.00000       Uiso       1.00
       C10          C  0.2110910  0.5695630  0.4999980    0.00000       Uiso       1.00
       C11          C  0.4304360  0.6415270  0.4999980    0.00000       Uiso       1.00
       C12          C  0.3584720  0.7889080  0.4999980    0.00000       Uiso       1.00
       C13          C  0.2043830  0.6067950  0.4999980    0.00000       Uiso       1.00
       C14          C  0.3932040  0.5975860  0.4999980    0.00000       Uiso       1.00
       C15          C  0.4024120  0.7956160  0.4999980    0.00000       Uiso       1.00
       C16          C  0.2416760  0.6512850  0.4999980    0.00000       Uiso       1.00
       C17          C  0.3487130  0.5903890  0.4999980    0.00000       Uiso       1.00
       C18          C  0.4096100  0.7583230  0.4999980    0.00000       Uiso       1.00
       O19          O  0.1593350  0.5931721  0.4999980    0.00000       Uiso       1.00
       O20          O  0.4068260  0.5661620  0.4999980    0.00000       Uiso       1.00
       O21          O  0.4338370  0.8406630  0.4999980    0.00000       Uiso       1.00
       B22          B  0.1366670  0.5438370  0.4999980    0.00000       Uiso       1.00
       B23          B  0.4561620  0.5928290  0.4999980    0.00000       Uiso       1.00
       B24          B  0.4071700  0.8633311  0.4999980    0.00000       Uiso       1.00
       O25          O  0.1707130  0.5298680  0.4999980    0.00000       Uiso       1.00
       O26          O  0.4701310  0.6408440  0.4999980    0.00000       Uiso       1.00
       O27          O  0.3591550  0.8292860  0.4999980    0.00000       Uiso       1.00
       H28          H  0.2568550  0.5467100  0.4999980    0.00000       Uiso       1.00
       H29          H  0.4532880  0.7101430  0.4999980    0.00000       Uiso       1.00
       H30          H  0.2898560  0.7431440  0.4999980    0.00000       Uiso       1.00
       H31          H  0.2333450  0.6763490  0.4999980    0.00000       Uiso       1.00
       H32          H  0.3236500  0.5569950  0.4999980    0.00000       Uiso       1.00
       H33          H  0.4430030  0.7666530  0.4999980    0.00000       Uiso       1.00
       C34          C  0.8445710  0.4432080  0.4999980    0.00000       Uiso       1.00
       C35          C  0.5567910  0.4013630  0.4999980    0.00000       Uiso       1.00
       C36          C  0.5986350  0.1554270  0.4999980    0.00000       Uiso       1.00
       C37          C  0.7965600  0.4230350  0.4999980    0.00000       Uiso       1.00
       C38          C  0.5769630  0.3735250  0.4999980    0.00000       Uiso       1.00
       C39          C  0.6264740  0.2034390  0.4999980    0.00000       Uiso       1.00
       H40          H  0.8644170  0.4781410  0.4999980    0.00000       Uiso       1.00
       H41          H  0.5218580  0.3862760  0.4999980    0.00000       Uiso       1.00
       H42          H  0.6137230  0.1355810  0.4999980    0.00000       Uiso       1.00
       H43          H  0.7852000  0.4457610  0.4999980    0.00000       Uiso       1.00
       H44          H  0.5542370  0.3394380  0.4999980    0.00000       Uiso       1.00
       H45          H  0.6605600  0.2147990  0.4999980    0.00000       Uiso       1.00
       C46          C  0.6318430  0.4685350  0.4999980    0.00000       Uiso       1.00
       C47          C  0.5314640  0.1633080  0.4999980    0.00000       Uiso       1.00
       C48          C  0.8366910  0.3681560  0.4999980    0.00000       Uiso       1.00
       C49          C  0.6515910  0.4402890  0.4999980    0.00000       Uiso       1.00
       C50          C  0.5597100  0.2113020  0.4999980    0.00000       Uiso       1.00
       C51          C  0.7886970  0.3484080  0.4999980    0.00000       Uiso       1.00
       H52          H  0.6528650  0.5032060  0.4999980    0.00000       Uiso       1.00
       H53          H  0.4967930  0.1496600  0.4999980    0.00000       Uiso       1.00
       H54          H  0.8503390  0.3471330  0.4999980    0.00000       Uiso       1.00
       H55          H  0.6863060  0.4575310  0.4999980    0.00000       Uiso       1.00
       H56          H  0.5424670  0.2287740  0.4999980    0.00000       Uiso       1.00
       H57          H  0.7712240  0.3136930  0.4999980    0.00000       Uiso       1.00
       C58          C  0.6459170  0.3624790  0.4999980    0.00000       Uiso       1.00
       C59          C  0.6375200  0.2834380  0.4999980    0.00000       Uiso       1.00
       C60          C  0.7165600  0.3540820  0.4999980    0.00000       Uiso       1.00
       C61          C  0.5839440  0.4492900  0.4999980    0.00000       Uiso       1.00
       C62          C  0.5507090  0.1346540  0.4999980    0.00000       Uiso       1.00
       C63          C  0.8653440  0.4160550  0.4999980    0.00000       Uiso       1.00
       C64          C  0.6253760  0.3913440  0.4999980    0.00000       Uiso       1.00
       C65          C  0.6086550  0.2340320  0.4999980    0.00000       Uiso       1.00
       C66          C  0.7659670  0.3746230  0.4999980    0.00000       Uiso       1.00
       C67          C  0.6197730  0.3138300  0.4999980    0.00000       Uiso       1.00
       C68          C  0.6861690  0.3059440  0.4999980    0.00000       Uiso       1.00
       C69          C  0.6940550  0.3802250  0.4999980    0.00000       Uiso       1.00
       H70          H  0.7139390  0.4142860  0.4999980    0.00000       Uiso       1.00
       H71          H  0.5857130  0.2996540  0.4999980    0.00000       Uiso       1.00
       H72          H  0.7003450  0.2860590  0.4999980    0.00000       Uiso       1.00
       N73          N  0.5616260  0.4733550  0.4999980    0.00000       Uiso       1.00
       C74          C  0.5772580  0.5189450  0.4999980    0.00000       Uiso       1.00
       H75          H  0.6117920  0.5413050  0.4999980    0.00000       Uiso       1.00
       C76          C  0.5470690  0.5364990  0.4999980    0.00000       Uiso       1.00
       C77          C  0.5647560  0.5844440  0.4999980    0.00000       Uiso       1.00
       C78          C  0.5353650  0.6028580  0.4999980    0.00000       Uiso       1.00
       C79          C  0.4874360  0.5736610  0.4999980    0.00000       Uiso       1.00
       C80          C  0.4694210  0.5258440  0.4999980    0.00000       Uiso       1.00
       C81          C  0.4988730  0.5075480  0.4999980    0.00000       Uiso       1.00
       H82          H  0.5993780  0.6064420  0.4999980    0.00000       Uiso       1.00
       H83          H  0.5492860  0.6376450  0.4999980    0.00000       Uiso       1.00
       H84          H  0.4348130  0.5038670  0.4999980    0.00000       Uiso       1.00
       H85          H  0.4846740  0.4727020  0.4999980    0.00000       Uiso       1.00
       N86          N  0.5266440  0.0882720  0.4999980    0.00000       Uiso       1.00
       C87          C  0.4810540  0.0583140  0.4999980    0.00000       Uiso       1.00
       H88          H  0.4586940  0.0704880  0.4999980    0.00000       Uiso       1.00
       C89          C  0.4635000  0.0105700  0.4999980    0.00000       Uiso       1.00
       C90          C  0.4155550  0.9803110  0.4999980    0.00000       Uiso       1.00
       C91          C  0.3971400  0.9325050  0.4999980    0.00000       Uiso       1.00
       C92          C  0.4263380  0.9137740  0.4999980    0.00000       Uiso       1.00
       C93          C  0.4741540  0.9435750  0.4999980    0.00000       Uiso       1.00
       C94          C  0.4924510  0.9913240  0.4999980    0.00000       Uiso       1.00
       H95          H  0.3935570  0.9929340  0.4999980    0.00000       Uiso       1.00
       H96          H  0.3623530  0.9116390  0.4999980    0.00000       Uiso       1.00
       H97          H  0.4961320  0.9309450  0.4999980    0.00000       Uiso       1.00
       H98          H  0.5272970  0.0119720  0.4999980    0.00000       Uiso       1.00
       N99          N  0.9117270  0.4383720  0.4999980    0.00000       Uiso       1.00
      C100          C  0.9416850  0.4227400  0.4999980    0.00000       Uiso       1.00
      H101          H  0.9295110  0.3882060  0.4999980    0.00000       Uiso       1.00
      C102          C  0.9894290  0.4529300  0.4999980    0.00000       Uiso       1.00
      C103          C  0.0196880  0.4352430  0.4999980    0.00000       Uiso       1.00
      C104          C  0.0674930  0.4646340  0.4999980    0.00000       Uiso       1.00
      C105          C  0.0862240  0.5125620  0.4999980    0.00000       Uiso       1.00
      C106          C  0.0564230  0.5305780  0.4999980    0.00000       Uiso       1.00
      C107          C  0.0086750  0.5011260  0.4999980    0.00000       Uiso       1.00
      H108          H  0.0070640  0.4006210  0.4999980    0.00000       Uiso       1.00
      H109          H  0.0883600  0.4507130  0.4999980    0.00000       Uiso       1.00
      H110          H  0.0690540  0.5651860  0.4999980    0.00000       Uiso       1.00
      H111          H  0.9880270  0.5153250  0.4999980    0.00000       Uiso       1.00
