data_NUS-10
_audit_creation_date              0000-00-00
_audit_creation_method            'LanYouShi'
_symmetry_space_group_name_H-M    'P1'
_cell_length_a                    22.8959007
_cell_length_b                    22.8959007
_cell_length_c                    5.5700002
_cell_angle_alpha                 90.0000000
_cell_angle_beta                  90.0000000
_cell_angle_gamma                 120.0000000
loop_
_atom_site_label
_atom_site_type_symbol
_atom_site_fract_x
_atom_site_fract_y
_atom_site_fract_z
_atom_site_U_iso_or_equiv
_atom_site_adp_type
_atom_site_occupancy
        H1          H  0.3786680  0.4484880  0.3860110    0.00000       Uiso       1.00
        H2          H  0.5515120  0.9301790  0.3860110    0.00000       Uiso       1.00
        H3          H  0.0698210  0.6213330  0.3860110    0.00000       Uiso       1.00
        H4          H  0.6213330  0.5515120  0.3860110    0.00000       Uiso       1.00
        H5          H  0.4484880  0.0698210  0.3860110    0.00000       Uiso       1.00
        H6          H  0.9301789  0.3786680  0.3860110    0.00000       Uiso       1.00
        H7          H  0.6589210  0.4797640  0.4330730    0.00000       Uiso       1.00
        H8          H  0.5202360  0.1791570  0.4330730    0.00000       Uiso       1.00
        H9          H  0.8208430  0.3410790  0.4330730    0.00000       Uiso       1.00
       H10          H  0.3410790  0.5202360  0.4330730    0.00000       Uiso       1.00
       H11          H  0.4797640  0.8208430  0.4330730    0.00000       Uiso       1.00
       H12          H  0.1791570  0.6589210  0.4330730    0.00000       Uiso       1.00
       C13          C  0.5411250  0.5707440  0.3824570    0.00000       Uiso       1.00
       C14          C  0.4292570  0.9703819  0.3824570    0.00000       Uiso       1.00
       C15          C  0.0296190  0.4588750  0.3824570    0.00000       Uiso       1.00
       C16          C  0.4588750  0.4292570  0.3824570    0.00000       Uiso       1.00
       C17          C  0.5707440  0.0296190  0.3824570    0.00000       Uiso       1.00
       C18          C  0.9703810  0.5411250  0.3824570    0.00000       Uiso       1.00
       C19          C  0.5700660  0.5288940  0.3866170    0.00000       Uiso       1.00
       C20          C  0.4711060  0.0411720  0.3866170    0.00000       Uiso       1.00
       C21          C  0.9588279  0.4299340  0.3866170    0.00000       Uiso       1.00
       C22          C  0.4299340  0.4711060  0.3866170    0.00000       Uiso       1.00
       C23          C  0.5288940  0.9588280  0.3866170    0.00000       Uiso       1.00
       C24          C  0.0411720  0.5700660  0.3866170    0.00000       Uiso       1.00
       C25          C  0.5301410  0.4577420  0.3890460    0.00000       Uiso       1.00
       C26          C  0.5422580  0.0723990  0.3890460    0.00000       Uiso       1.00
       C27          C  0.9276010  0.4698590  0.3890460    0.00000       Uiso       1.00
       C28          C  0.4698590  0.5422580  0.3890460    0.00000       Uiso       1.00
       C29          C  0.4577420  0.9276009  0.3890460    0.00000       Uiso       1.00
       C30          C  0.0723990  0.5301410  0.3890460    0.00000       Uiso       1.00
       C31          C  0.6219140  0.4301810  0.4194770    0.00000       Uiso       1.00
       C32          C  0.5698190  0.1917330  0.4194770    0.00000       Uiso       1.00
       C33          C  0.8082680  0.3780870  0.4194770    0.00000       Uiso       1.00
       C34          C  0.3780870  0.5698190  0.4194770    0.00000       Uiso       1.00
       C35          C  0.4301810  0.8082681  0.4194770    0.00000       Uiso       1.00
       C36          C  0.1917330  0.6219140  0.4194770    0.00000       Uiso       1.00
       S37          S  0.5952980  0.6580480  0.3672190    0.00000       Uiso       1.00
       S38          S  0.3419530  0.9372500  0.3672190    0.00000       Uiso       1.00
       S39          S  0.0627500  0.4047020  0.3672190    0.00000       Uiso       1.00
       S40          S  0.4047020  0.3419530  0.3672190    0.00000       Uiso       1.00
       S41          S  0.6580480  0.0627500  0.3672190    0.00000       Uiso       1.00
       S42          S  0.9372500  0.5952980  0.3672190    0.00000       Uiso       1.00
       O43          O  0.4343420  0.3068880  0.1707100    0.00000       Uiso       1.00
       O44          O  0.6931120  0.1274540  0.1707100    0.00000       Uiso       1.00
       O45          O  0.8725460  0.5656580  0.1707100    0.00000       Uiso       1.00
       O46          O  0.5656580  0.6931120  0.1707100    0.00000       Uiso       1.00
       O47          O  0.3068880  0.8725461  0.1707100    0.00000       Uiso       1.00
       O48          O  0.1274540  0.4343420  0.1707100    0.00000       Uiso       1.00
       O49          O  0.3320150  0.3234200  0.2730630    0.00000       Uiso       1.00
       O50          O  0.6765800  0.0085950  0.2730630    0.00000       Uiso       1.00
       O51          O  0.9914050  0.6679850  0.2730630    0.00000       Uiso       1.00
       O52          O  0.6679850  0.6765800  0.2730630    0.00000       Uiso       1.00
       O53          O  0.3234200  0.9914050  0.2730630    0.00000       Uiso       1.00
       O54          O  0.0085950  0.3320150  0.2730630    0.00000       Uiso       1.00
       O55          O  0.3980430  0.3089490  0.6242380    0.00000       Uiso       1.00
       O56          O  0.6910510  0.0890940  0.6242380    0.00000       Uiso       1.00
       O57          O  0.9109060  0.6019570  0.6242380    0.00000       Uiso       1.00
       O58          O  0.6019570  0.6910510  0.6242380    0.00000       Uiso       1.00
       O59          O  0.3089490  0.9109060  0.6242380    0.00000       Uiso       1.00
       O60          O  0.0890940  0.3980430  0.6242380    0.00000       Uiso       1.00
       H61          H  0.4039590  0.2942370  0.0307420    0.00000       Uiso       1.00
       H62          H  0.7057630  0.1097220  0.0307420    0.00000       Uiso       1.00
       H63          H  0.8902780  0.5960420  0.0307420    0.00000       Uiso       1.00
       H64          H  0.5960420  0.7057630  0.0307420    0.00000       Uiso       1.00
       H65          H  0.2942370  0.8902790  0.0307420    0.00000       Uiso       1.00
       H66          H  0.1097220  0.4039590  0.0307420    0.00000       Uiso       1.00
       N67          N  0.5568290  0.4159880  0.3949390    0.00000       Uiso       1.00
       H68          H  0.5236110  0.3677770  0.3779730    0.00000       Uiso       1.00
       N69          N  0.5840120  0.1408410  0.3949390    0.00000       Uiso       1.00
       H70          H  0.6322230  0.1558350  0.3779730    0.00000       Uiso       1.00
       N71          N  0.8591590  0.4431710  0.3949390    0.00000       Uiso       1.00
       H72          H  0.8441660  0.4763890  0.3779730    0.00000       Uiso       1.00
       N73          N  0.4431710  0.5840120  0.3949390    0.00000       Uiso       1.00
       H74          H  0.4763890  0.6322230  0.3779730    0.00000       Uiso       1.00
       N75          N  0.4159880  0.8591591  0.3949390    0.00000       Uiso       1.00
       H76          H  0.3677770  0.8441660  0.3779730    0.00000       Uiso       1.00
       N77          N  0.1408410  0.5568290  0.3949390    0.00000       Uiso       1.00
       H78          H  0.1558350  0.5236110  0.3779730    0.00000       Uiso       1.00
       C79          C  0.5975450  0.3104270  0.4278730    0.00000       Uiso       1.00
       C80          C  0.6429520  0.3810830  0.4250470    0.00000       Uiso       1.00
       C81          C  0.6895730  0.2871180  0.4278730    0.00000       Uiso       1.00
       C82          C  0.6189180  0.2618700  0.4250470    0.00000       Uiso       1.00
       C83          C  0.7128820  0.4024560  0.4278730    0.00000       Uiso       1.00
       C84          C  0.7381310  0.3570480  0.4250470    0.00000       Uiso       1.00
       C85          C  0.4024560  0.6895730  0.4278730    0.00000       Uiso       1.00
       C86          C  0.3570480  0.6189180  0.4250470    0.00000       Uiso       1.00
       C87          C  0.3104270  0.7128820  0.4278730    0.00000       Uiso       1.00
       C88          C  0.3810830  0.7381310  0.4250470    0.00000       Uiso       1.00
       C89          C  0.2871180  0.5975450  0.4278730    0.00000       Uiso       1.00
       C90          C  0.2618700  0.6429520  0.4250470    0.00000       Uiso       1.00
       O91          O  0.5354530  0.2891100  0.4358200    0.00000       Uiso       1.00
       O92          O  0.7108910  0.2463430  0.4358200    0.00000       Uiso       1.00
       O93          O  0.7536570  0.4645480  0.4358200    0.00000       Uiso       1.00
       O94          O  0.4645480  0.7108910  0.4358200    0.00000       Uiso       1.00
       O95          O  0.2891100  0.7536570  0.4358200    0.00000       Uiso       1.00
       O96          O  0.2463430  0.5354530  0.4358200    0.00000       Uiso       1.00
