data_NUS-14
_audit_creation_date              0000-00-00
_audit_creation_method            'LanYouShi'
_symmetry_space_group_name_H-M    'P1'
_cell_length_a                    47.8844986
_cell_length_b                    47.8844986
_cell_length_c                    3.5362000
_cell_angle_alpha                 90.0000000
_cell_angle_beta                  90.0000000
_cell_angle_gamma                 120.0000000
loop_
_atom_site_label
_atom_site_type_symbol
_atom_site_fract_x
_atom_site_fract_y
_atom_site_fract_z
_atom_site_U_iso_or_equiv
_atom_site_adp_type
_atom_site_occupancy
        N1          N  0.1433360  0.5813460  0.5000030    0.00000       Uiso       1.00
        N2          N  0.4186550  0.5619910  0.5000030    0.00000       Uiso       1.00
        N3          N  0.4380100  0.8566651  0.5000030    0.00000       Uiso       1.00
        N4          N  0.8566650  0.4186550  0.5000030    0.00000       Uiso       1.00
        N5          N  0.5813460  0.4380100  0.5000030    0.00000       Uiso       1.00
        N6          N  0.5619910  0.1433360  0.5000030    0.00000       Uiso       1.00
        N7          N  0.0095290  0.5155380  0.5000030    0.00000       Uiso       1.00
        N8          N  0.4844630  0.4939920  0.5000030    0.00000       Uiso       1.00
        N9          N  0.5060090  0.9904720  0.5000030    0.00000       Uiso       1.00
       N10          N  0.9904720  0.4844630  0.5000030    0.00000       Uiso       1.00
       N11          N  0.5155380  0.5060090  0.5000030    0.00000       Uiso       1.00
       N12          N  0.4939920  0.0095290  0.5000030    0.00000       Uiso       1.00
       C13          C  0.1662100  0.6129520  0.5000030    0.00000       Uiso       1.00
       C14          C  0.1107450  0.5666220  0.5000030    0.00000       Uiso       1.00
       C15          C  0.0927570  0.5827250  0.5000030    0.00000       Uiso       1.00
       C16          C  0.0587770  0.5650740  0.5000030    0.00000       Uiso       1.00
       C17          C  0.0420990  0.5311060  0.5000030    0.00000       Uiso       1.00
       C18          C  0.0600290  0.5150050  0.5000030    0.00000       Uiso       1.00
       C19          C  0.0940000  0.5326370  0.5000030    0.00000       Uiso       1.00
       C20          C  0.3870480  0.5532590  0.5000030    0.00000       Uiso       1.00
       C21          C  0.4333790  0.5441240  0.5000030    0.00000       Uiso       1.00
       C22          C  0.4172760  0.5100330  0.5000030    0.00000       Uiso       1.00
       C23          C  0.4349270  0.4937040  0.5000030    0.00000       Uiso       1.00
       C24          C  0.4688950  0.5109940  0.5000030    0.00000       Uiso       1.00
       C25          C  0.4849960  0.5450250  0.5000030    0.00000       Uiso       1.00
       C26          C  0.4673640  0.5613640  0.5000030    0.00000       Uiso       1.00
       C27          C  0.4467420  0.8337900  0.5000030    0.00000       Uiso       1.00
       C28          C  0.4558770  0.8892560  0.5000030    0.00000       Uiso       1.00
       C29          C  0.4899680  0.9072430  0.5000030    0.00000       Uiso       1.00
       C30          C  0.5062970  0.9412240  0.5000030    0.00000       Uiso       1.00
       C31          C  0.4890070  0.9579020  0.5000030    0.00000       Uiso       1.00
       C32          C  0.4549760  0.9399719  0.5000030    0.00000       Uiso       1.00
       C33          C  0.4386370  0.9060010  0.5000030    0.00000       Uiso       1.00
       C34          C  0.8337900  0.3870480  0.5000030    0.00000       Uiso       1.00
       C35          C  0.8892560  0.4333790  0.5000030    0.00000       Uiso       1.00
       C36          C  0.9072430  0.4172760  0.5000030    0.00000       Uiso       1.00
       C37          C  0.9412239  0.4349270  0.5000030    0.00000       Uiso       1.00
       C38          C  0.9579020  0.4688950  0.5000030    0.00000       Uiso       1.00
       C39          C  0.9399720  0.4849960  0.5000030    0.00000       Uiso       1.00
       C40          C  0.9060010  0.4673640  0.5000030    0.00000       Uiso       1.00
       C41          C  0.6129520  0.4467420  0.5000030    0.00000       Uiso       1.00
       C42          C  0.5666220  0.4558770  0.5000030    0.00000       Uiso       1.00
       C43          C  0.5827250  0.4899680  0.5000030    0.00000       Uiso       1.00
       C44          C  0.5650740  0.5062970  0.5000030    0.00000       Uiso       1.00
       C45          C  0.5311060  0.4890070  0.5000030    0.00000       Uiso       1.00
       C46          C  0.5150050  0.4549760  0.5000030    0.00000       Uiso       1.00
       C47          C  0.5326370  0.4386370  0.5000030    0.00000       Uiso       1.00
       C48          C  0.5532590  0.1662100  0.5000030    0.00000       Uiso       1.00
       C49          C  0.5441240  0.1107450  0.5000030    0.00000       Uiso       1.00
       C50          C  0.5100330  0.0927570  0.5000030    0.00000       Uiso       1.00
       C51          C  0.4937040  0.0587770  0.5000030    0.00000       Uiso       1.00
       C52          C  0.5109940  0.0420990  0.5000030    0.00000       Uiso       1.00
       C53          C  0.5450250  0.0600290  0.5000030    0.00000       Uiso       1.00
       C54          C  0.5613640  0.0940000  0.5000030    0.00000       Uiso       1.00
       H55          H  0.1593630  0.6300280  0.5000030    0.00000       Uiso       1.00
       H56          H  0.1040810  0.6072840  0.5000030    0.00000       Uiso       1.00
       H57          H  0.1066160  0.5205930  0.5000030    0.00000       Uiso       1.00
       H58          H  0.0461050  0.5770550  0.5000030    0.00000       Uiso       1.00
       H59          H  0.0482730  0.4903840  0.5000030    0.00000       Uiso       1.00
       H60          H  0.3699730  0.5293360  0.5000030    0.00000       Uiso       1.00
       H61          H  0.3927170  0.4967970  0.5000030    0.00000       Uiso       1.00
       H62          H  0.4794080  0.5860230  0.5000030    0.00000       Uiso       1.00
       H63          H  0.4229460  0.4690500  0.5000030    0.00000       Uiso       1.00
       H64          H  0.5096170  0.5578900  0.5000030    0.00000       Uiso       1.00
       H65          H  0.4706650  0.8406379  0.5000030    0.00000       Uiso       1.00
       H66          H  0.5032040  0.8959199  0.5000030    0.00000       Uiso       1.00
       H67          H  0.4139770  0.8933850  0.5000030    0.00000       Uiso       1.00
       H68          H  0.5309500  0.9538960  0.5000030    0.00000       Uiso       1.00
       H69          H  0.4421110  0.9517280  0.5000030    0.00000       Uiso       1.00
       H70          H  0.8406380  0.3699730  0.5000030    0.00000       Uiso       1.00
       H71          H  0.8959200  0.3927170  0.5000030    0.00000       Uiso       1.00
       H72          H  0.8933850  0.4794080  0.5000030    0.00000       Uiso       1.00
       H73          H  0.9538960  0.4229460  0.5000030    0.00000       Uiso       1.00
       H74          H  0.9517279  0.5096170  0.5000030    0.00000       Uiso       1.00
       H75          H  0.6300280  0.4706650  0.5000030    0.00000       Uiso       1.00
       H76          H  0.6072840  0.5032040  0.5000030    0.00000       Uiso       1.00
       H77          H  0.5205930  0.4139770  0.5000030    0.00000       Uiso       1.00
       H78          H  0.5770550  0.5309500  0.5000030    0.00000       Uiso       1.00
       H79          H  0.4903840  0.4421110  0.5000030    0.00000       Uiso       1.00
       H80          H  0.5293360  0.1593630  0.5000030    0.00000       Uiso       1.00
       H81          H  0.4967970  0.1040810  0.5000030    0.00000       Uiso       1.00
       H82          H  0.5860230  0.1066160  0.5000030    0.00000       Uiso       1.00
       H83          H  0.4690500  0.0461050  0.5000030    0.00000       Uiso       1.00
       H84          H  0.5578900  0.0482730  0.5000030    0.00000       Uiso       1.00
       C85          C  0.3553440  0.6991670  0.5000030    0.00000       Uiso       1.00
       C86          C  0.3008340  0.6561780  0.5000030    0.00000       Uiso       1.00
       C87          C  0.3438230  0.6446570  0.5000030    0.00000       Uiso       1.00
       C88          C  0.6446570  0.3008340  0.5000030    0.00000       Uiso       1.00
       C89          C  0.6991670  0.3438230  0.5000030    0.00000       Uiso       1.00
       C90          C  0.6561780  0.3553440  0.5000030    0.00000       Uiso       1.00
       N91          N  0.3648750  0.6768490  0.5000030    0.00000       Uiso       1.00
       N92          N  0.3231520  0.6880270  0.5000030    0.00000       Uiso       1.00
       N93          N  0.3119740  0.6351260  0.5000030    0.00000       Uiso       1.00
       N94          N  0.6351260  0.3231520  0.5000030    0.00000       Uiso       1.00
       N95          N  0.6768490  0.3119740  0.5000030    0.00000       Uiso       1.00
       N96          N  0.6880270  0.3648750  0.5000030    0.00000       Uiso       1.00
       C97          C  0.3779590  0.7326470  0.5000030    0.00000       Uiso       1.00
       C98          C  0.2673540  0.6453120  0.5000030    0.00000       Uiso       1.00
       C99          C  0.3546890  0.6220420  0.5000030    0.00000       Uiso       1.00
      C100          C  0.2441490  0.6119700  0.5000030    0.00000       Uiso       1.00
      C101          C  0.3880310  0.6321800  0.5000030    0.00000       Uiso       1.00
      C102          C  0.3678210  0.7558520  0.5000030    0.00000       Uiso       1.00
      C103          C  0.2108810  0.6011250  0.5000030    0.00000       Uiso       1.00
      C104          C  0.3988760  0.6097580  0.5000030    0.00000       Uiso       1.00
      C105          C  0.3902430  0.7891190  0.5000030    0.00000       Uiso       1.00
      C106          C  0.1994090  0.6231970  0.5000030    0.00000       Uiso       1.00
      C107          C  0.3768030  0.5762120  0.5000030    0.00000       Uiso       1.00
      C108          C  0.4237890  0.8005921  0.5000030    0.00000       Uiso       1.00
      C109          C  0.2224160  0.6564890  0.5000030    0.00000       Uiso       1.00
      C110          C  0.3435120  0.5659280  0.5000030    0.00000       Uiso       1.00
      C111          C  0.4340730  0.7775850  0.5000030    0.00000       Uiso       1.00
      C112          C  0.2556720  0.6672950  0.5000030    0.00000       Uiso       1.00
      C113          C  0.3327060  0.5883780  0.5000030    0.00000       Uiso       1.00
      C114          C  0.4116220  0.7443290  0.5000030    0.00000       Uiso       1.00
      C115          C  0.6220420  0.2673540  0.5000030    0.00000       Uiso       1.00
      C116          C  0.7326470  0.3546890  0.5000030    0.00000       Uiso       1.00
      C117          C  0.6453120  0.3779590  0.5000030    0.00000       Uiso       1.00
      C118          C  0.7558520  0.3880310  0.5000030    0.00000       Uiso       1.00
      C119          C  0.6119700  0.3678210  0.5000030    0.00000       Uiso       1.00
      C120          C  0.6321800  0.2441490  0.5000030    0.00000       Uiso       1.00
      C121          C  0.7891190  0.3988760  0.5000030    0.00000       Uiso       1.00
      C122          C  0.6011250  0.3902430  0.5000030    0.00000       Uiso       1.00
      C123          C  0.6097580  0.2108810  0.5000030    0.00000       Uiso       1.00
      C124          C  0.8005920  0.3768030  0.5000030    0.00000       Uiso       1.00
      C125          C  0.6231970  0.4237890  0.5000030    0.00000       Uiso       1.00
      C126          C  0.5762120  0.1994090  0.5000030    0.00000       Uiso       1.00
      C127          C  0.7775850  0.3435120  0.5000030    0.00000       Uiso       1.00
      C128          C  0.6564890  0.4340730  0.5000030    0.00000       Uiso       1.00
      C129          C  0.5659280  0.2224160  0.5000030    0.00000       Uiso       1.00
      C130          C  0.7443290  0.3327060  0.5000030    0.00000       Uiso       1.00
      C131          C  0.6672950  0.4116220  0.5000030    0.00000       Uiso       1.00
      C132          C  0.5883780  0.2556720  0.5000030    0.00000       Uiso       1.00
      H133          H  0.2512890  0.5950850  0.5000030    0.00000       Uiso       1.00
      H134          H  0.4049160  0.6562050  0.5000030    0.00000       Uiso       1.00
      H135          H  0.3437960  0.7487120  0.5000030    0.00000       Uiso       1.00
      H136          H  0.1950210  0.5768300  0.5000030    0.00000       Uiso       1.00
      H137          H  0.4231710  0.6181920  0.5000030    0.00000       Uiso       1.00
      H138          H  0.3818080  0.8049790  0.5000030    0.00000       Uiso       1.00
      H139          H  0.2151950  0.6733180  0.5000030    0.00000       Uiso       1.00
      H140          H  0.3266830  0.5418780  0.5000030    0.00000       Uiso       1.00
      H141          H  0.4581230  0.7848061  0.5000030    0.00000       Uiso       1.00
      H142          H  0.2713640  0.6916280  0.5000030    0.00000       Uiso       1.00
      H143          H  0.3083730  0.5797370  0.5000030    0.00000       Uiso       1.00
      H144          H  0.4202640  0.7286370  0.5000030    0.00000       Uiso       1.00
      H145          H  0.7487120  0.4049160  0.5000030    0.00000       Uiso       1.00
      H146          H  0.5950850  0.3437960  0.5000030    0.00000       Uiso       1.00
      H147          H  0.6562040  0.2512890  0.5000030    0.00000       Uiso       1.00
      H148          H  0.8049790  0.4231710  0.5000030    0.00000       Uiso       1.00
      H149          H  0.5768300  0.3818080  0.5000030    0.00000       Uiso       1.00
      H150          H  0.6181920  0.1950210  0.5000030    0.00000       Uiso       1.00
      H151          H  0.7848060  0.3266830  0.5000030    0.00000       Uiso       1.00
      H152          H  0.6733180  0.4581230  0.5000030    0.00000       Uiso       1.00
      H153          H  0.5418780  0.2151950  0.5000030    0.00000       Uiso       1.00
      H154          H  0.7286370  0.3083730  0.5000030    0.00000       Uiso       1.00
      H155          H  0.6916280  0.4202640  0.5000030    0.00000       Uiso       1.00
      H156          H  0.5797370  0.2713640  0.5000030    0.00000       Uiso       1.00
