data_NUS-15
_audit_creation_date              0000-00-00
_audit_creation_method            'LanYouShi'
_symmetry_space_group_name_H-M    'P1'
_cell_length_a                    37.5149002
_cell_length_b                    37.5149002
_cell_length_c                    3.5355000
_cell_angle_alpha                 90.0000000
_cell_angle_beta                  90.0000000
_cell_angle_gamma                 120.0000000
loop_
_atom_site_label
_atom_site_type_symbol
_atom_site_fract_x
_atom_site_fract_y
_atom_site_fract_z
_atom_site_U_iso_or_equiv
_atom_site_adp_type
_atom_site_occupancy
        N1          N  0.4597560  0.5451930  0.4999960    0.00000       Uiso       1.00
        N2          N  0.4548070  0.9145630  0.4999960    0.00000       Uiso       1.00
        N3          N  0.0854370  0.5402440  0.4999960    0.00000       Uiso       1.00
        N4          N  0.5402440  0.4548070  0.4999960    0.00000       Uiso       1.00
        N5          N  0.5451930  0.0854370  0.4999960    0.00000       Uiso       1.00
        N6          N  0.9145630  0.4597560  0.4999960    0.00000       Uiso       1.00
        C7          C  0.4729260  0.5860080  0.4999960    0.00000       Uiso       1.00
        C8          C  0.4139920  0.8869180  0.4999960    0.00000       Uiso       1.00
        C9          C  0.1130820  0.5270740  0.4999960    0.00000       Uiso       1.00
       C10          C  0.5270740  0.4139920  0.4999960    0.00000       Uiso       1.00
       C11          C  0.5860080  0.1130820  0.4999960    0.00000       Uiso       1.00
       C12          C  0.8869180  0.4729260  0.4999960    0.00000       Uiso       1.00
       C13          C  0.4807820  0.5245440  0.4999960    0.00000       Uiso       1.00
       C14          C  0.4754560  0.9562380  0.4999960    0.00000       Uiso       1.00
       C15          C  0.0437620  0.5192180  0.4999960    0.00000       Uiso       1.00
       C16          C  0.5192180  0.4754560  0.4999960    0.00000       Uiso       1.00
       C17          C  0.5245440  0.0437620  0.4999960    0.00000       Uiso       1.00
       C18          C  0.9562380  0.4807820  0.4999960    0.00000       Uiso       1.00
       C19          C  0.5241480  0.5431360  0.4999960    0.00000       Uiso       1.00
       C20          C  0.4568640  0.9810120  0.4999960    0.00000       Uiso       1.00
       C21          C  0.0189870  0.4758510  0.4999960    0.00000       Uiso       1.00
       C22          C  0.4758510  0.4568640  0.4999960    0.00000       Uiso       1.00
       C23          C  0.5431360  0.0189870  0.4999960    0.00000       Uiso       1.00
       C24          C  0.9810120  0.5241480  0.4999960    0.00000       Uiso       1.00
       C25          C  0.5430180  0.5187500  0.4999960    0.00000       Uiso       1.00
       C26          C  0.4812500  0.0242680  0.4999960    0.00000       Uiso       1.00
       C27          C  0.9757320  0.4569820  0.4999960    0.00000       Uiso       1.00
       C28          C  0.4569820  0.4812500  0.4999960    0.00000       Uiso       1.00
       C29          C  0.5187500  0.9757320  0.4999960    0.00000       Uiso       1.00
       C30          C  0.0242680  0.5430180  0.4999960    0.00000       Uiso       1.00
       H31          H  0.5038000  0.6066340  0.4999960    0.00000       Uiso       1.00
       H32          H  0.3933650  0.8971650  0.4999960    0.00000       Uiso       1.00
       H33          H  0.1028350  0.4962000  0.4999960    0.00000       Uiso       1.00
       H34          H  0.4962000  0.3933650  0.4999960    0.00000       Uiso       1.00
       H35          H  0.6066340  0.1028350  0.4999960    0.00000       Uiso       1.00
       H36          H  0.8971650  0.5038000  0.4999960    0.00000       Uiso       1.00
       H37          H  0.5423530  0.5743640  0.4999960    0.00000       Uiso       1.00
       H38          H  0.4256360  0.9679880  0.4999960    0.00000       Uiso       1.00
       H39          H  0.0320110  0.4576470  0.4999960    0.00000       Uiso       1.00
       H40          H  0.4576470  0.4256360  0.4999960    0.00000       Uiso       1.00
       H41          H  0.5743640  0.0320110  0.4999960    0.00000       Uiso       1.00
       H42          H  0.9679880  0.5423530  0.4999960    0.00000       Uiso       1.00
       H43          H  0.4255750  0.4672870  0.4999960    0.00000       Uiso       1.00
       H44          H  0.5327130  0.9582880  0.4999960    0.00000       Uiso       1.00
       H45          H  0.0417120  0.5744250  0.4999960    0.00000       Uiso       1.00
       H46          H  0.5744250  0.5327130  0.4999960    0.00000       Uiso       1.00
       H47          H  0.4672870  0.0417120  0.4999960    0.00000       Uiso       1.00
       H48          H  0.9582880  0.4255750  0.4999960    0.00000       Uiso       1.00
       C49          C  0.3496900  0.7110360  0.4999960    0.00000       Uiso       1.00
       C50          C  0.2889640  0.6386530  0.4999960    0.00000       Uiso       1.00
       C51          C  0.3613460  0.6503100  0.4999960    0.00000       Uiso       1.00
       C52          C  0.6503100  0.2889640  0.4999960    0.00000       Uiso       1.00
       C53          C  0.7110360  0.3613460  0.4999960    0.00000       Uiso       1.00
       C54          C  0.6386530  0.3496900  0.4999960    0.00000       Uiso       1.00
       C55          C  0.3069370  0.6820830  0.4999960    0.00000       Uiso       1.00
       C56          C  0.3179170  0.6248530  0.4999960    0.00000       Uiso       1.00
       C57          C  0.3751460  0.6930630  0.4999960    0.00000       Uiso       1.00
       C58          C  0.6930630  0.3179170  0.4999960    0.00000       Uiso       1.00
       C59          C  0.6820830  0.3751460  0.4999960    0.00000       Uiso       1.00
       C60          C  0.6248530  0.3069370  0.4999960    0.00000       Uiso       1.00
       C61          C  0.3659800  0.7551520  0.4999960    0.00000       Uiso       1.00
       C62          C  0.2448470  0.6108270  0.4999960    0.00000       Uiso       1.00
       C63          C  0.3891730  0.6340200  0.4999960    0.00000       Uiso       1.00
       C64          C  0.6340200  0.2448470  0.4999960    0.00000       Uiso       1.00
       C65          C  0.7551520  0.3891730  0.4999960    0.00000       Uiso       1.00
       C66          C  0.6108271  0.3659800  0.4999960    0.00000       Uiso       1.00
       C67          C  0.3753910  0.5909420  0.4999960    0.00000       Uiso       1.00
       C68          C  0.4090580  0.7844490  0.4999960    0.00000       Uiso       1.00
       C69          C  0.2155500  0.6246080  0.4999960    0.00000       Uiso       1.00
       C70          C  0.6246080  0.4090580  0.4999960    0.00000       Uiso       1.00
       C71          C  0.5909420  0.2155500  0.4999960    0.00000       Uiso       1.00
       C72          C  0.7844490  0.3753910  0.4999960    0.00000       Uiso       1.00
       C73          C  0.4022470  0.5749250  0.4999960    0.00000       Uiso       1.00
       C74          C  0.4250750  0.8273220  0.4999960    0.00000       Uiso       1.00
       C75          C  0.1726780  0.5977520  0.4999960    0.00000       Uiso       1.00
       C76          C  0.5977520  0.4250750  0.4999960    0.00000       Uiso       1.00
       C77          C  0.5749250  0.1726780  0.4999960    0.00000       Uiso       1.00
       C78          C  0.8273220  0.4022470  0.4999960    0.00000       Uiso       1.00
       C79          C  0.4452650  0.6011330  0.4999960    0.00000       Uiso       1.00
       C80          C  0.3988660  0.8441320  0.4999960    0.00000       Uiso       1.00
       C81          C  0.1558680  0.5547340  0.4999960    0.00000       Uiso       1.00
       C82          C  0.5547340  0.3988660  0.4999960    0.00000       Uiso       1.00
       C83          C  0.6011330  0.1558680  0.4999960    0.00000       Uiso       1.00
       C84          C  0.8441320  0.4452650  0.4999960    0.00000       Uiso       1.00
       C85          C  0.4601450  0.6438350  0.4999960    0.00000       Uiso       1.00
       C86          C  0.3561650  0.8163100  0.4999960    0.00000       Uiso       1.00
       C87          C  0.1836900  0.5398550  0.4999960    0.00000       Uiso       1.00
       C88          C  0.5398550  0.3561650  0.4999960    0.00000       Uiso       1.00
       C89          C  0.6438350  0.1836900  0.4999960    0.00000       Uiso       1.00
       C90          C  0.8163100  0.4601450  0.4999960    0.00000       Uiso       1.00
       C91          C  0.4329830  0.6594830  0.4999960    0.00000       Uiso       1.00
       C92          C  0.3405160  0.7735000  0.4999960    0.00000       Uiso       1.00
       C93          C  0.2265000  0.5670160  0.4999960    0.00000       Uiso       1.00
       C94          C  0.5670160  0.3405160  0.4999960    0.00000       Uiso       1.00
       C95          C  0.6594830  0.2265000  0.4999960    0.00000       Uiso       1.00
       C96          C  0.7735000  0.4329830  0.4999960    0.00000       Uiso       1.00
       H97          H  0.3450530  0.5692890  0.4999960    0.00000       Uiso       1.00
       H98          H  0.4307100  0.7757640  0.4999960    0.00000       Uiso       1.00
       H99          H  0.2242360  0.6549470  0.4999960    0.00000       Uiso       1.00
      H100          H  0.6549470  0.4307100  0.4999960    0.00000       Uiso       1.00
      H101          H  0.5692890  0.2242360  0.4999960    0.00000       Uiso       1.00
      H102          H  0.7757640  0.3450530  0.4999960    0.00000       Uiso       1.00
      H103          H  0.3900110  0.5436590  0.4999960    0.00000       Uiso       1.00
      H104          H  0.4563410  0.8463510  0.4999960    0.00000       Uiso       1.00
      H105          H  0.1536480  0.6099890  0.4999960    0.00000       Uiso       1.00
      H106          H  0.6099890  0.4563410  0.4999960    0.00000       Uiso       1.00
      H107          H  0.5436590  0.1536480  0.4999960    0.00000       Uiso       1.00
      H108          H  0.8463510  0.3900110  0.4999960    0.00000       Uiso       1.00
      H109          H  0.4911710  0.6641770  0.4999960    0.00000       Uiso       1.00
      H110          H  0.3358220  0.8269930  0.4999960    0.00000       Uiso       1.00
      H111          H  0.1730070  0.5088290  0.4999960    0.00000       Uiso       1.00
      H112          H  0.5088290  0.3358220  0.4999960    0.00000       Uiso       1.00
      H113          H  0.6641770  0.1730070  0.4999960    0.00000       Uiso       1.00
      H114          H  0.8269930  0.4911710  0.4999960    0.00000       Uiso       1.00
      H115          H  0.4470790  0.6906900  0.4999960    0.00000       Uiso       1.00
      H116          H  0.3093100  0.7563890  0.4999960    0.00000       Uiso       1.00
      H117          H  0.2436110  0.5529210  0.4999960    0.00000       Uiso       1.00
      H118          H  0.5529210  0.3093100  0.4999960    0.00000       Uiso       1.00
      H119          H  0.6906900  0.2436110  0.4999960    0.00000       Uiso       1.00
      H120          H  0.7563890  0.4470790  0.4999960    0.00000       Uiso       1.00
      H121          H  0.2877500  0.6933480  0.4999960    0.00000       Uiso       1.00
      H122          H  0.3066520  0.5944030  0.4999960    0.00000       Uiso       1.00
      H123          H  0.4055970  0.7122490  0.4999960    0.00000       Uiso       1.00
      H124          H  0.7122490  0.3066520  0.4999960    0.00000       Uiso       1.00
      H125          H  0.6933480  0.4055970  0.4999960    0.00000       Uiso       1.00
      H126          H  0.5944020  0.2877500  0.4999960    0.00000       Uiso       1.00
