data_NUS-9
_audit_creation_date              0000-00-00
_audit_creation_method            'LanYouShi'
_symmetry_space_group_name_H-M    'P1'
_cell_length_a                    22.8959007
_cell_length_b                    22.8959007
_cell_length_c                    5.3800001
_cell_angle_alpha                 90.0000000
_cell_angle_beta                  90.0000000
_cell_angle_gamma                 120.0000000
loop_
_atom_site_label
_atom_site_type_symbol
_atom_site_fract_x
_atom_site_fract_y
_atom_site_fract_z
_atom_site_U_iso_or_equiv
_atom_site_adp_type
_atom_site_occupancy
        H1          H  0.3727300  0.4475380  0.3889560    0.00000       Uiso       1.00
        H2          H  0.5524630  0.9251931  0.3889630    0.00000       Uiso       1.00
        H3          H  0.0748080  0.6272700  0.3889730    0.00000       Uiso       1.00
        H4          H  0.6272700  0.5524630  0.3889510    0.00000       Uiso       1.00
        H5          H  0.4475370  0.0748070  0.3889670    0.00000       Uiso       1.00
        H6          H  0.9251931  0.3727300  0.3889730    0.00000       Uiso       1.00
        H7          H  0.6642850  0.4847900  0.4448930    0.00000       Uiso       1.00
        H8          H  0.5152110  0.1794960  0.4448900    0.00000       Uiso       1.00
        H9          H  0.8205050  0.3357160  0.4449040    0.00000       Uiso       1.00
       H10          H  0.3357160  0.5152110  0.4448920    0.00000       Uiso       1.00
       H11          H  0.4847900  0.8205050  0.4448890    0.00000       Uiso       1.00
       H12          H  0.1794960  0.6642850  0.4449030    0.00000       Uiso       1.00
       C13          C  0.5409940  0.5707080  0.3821210    0.00000       Uiso       1.00
       C14          C  0.4292930  0.9702860  0.3821350    0.00000       Uiso       1.00
       C15          C  0.0297140  0.4590060  0.3821420    0.00000       Uiso       1.00
       C16          C  0.4590060  0.4292930  0.3821240    0.00000       Uiso       1.00
       C17          C  0.5707080  0.0297140  0.3821320    0.00000       Uiso       1.00
       C18          C  0.9702870  0.5409940  0.3821410    0.00000       Uiso       1.00
       C19          C  0.5700820  0.5289720  0.3871260    0.00000       Uiso       1.00
       C20          C  0.4710280  0.0411100  0.3871390    0.00000       Uiso       1.00
       C21          C  0.9588900  0.4299180  0.3871470    0.00000       Uiso       1.00
       C22          C  0.4299180  0.4710280  0.3871290    0.00000       Uiso       1.00
       C23          C  0.5289720  0.9588900  0.3871370    0.00000       Uiso       1.00
       C24          C  0.0411100  0.5700820  0.3871470    0.00000       Uiso       1.00
       C25          C  0.5302610  0.4578230  0.3900170    0.00000       Uiso       1.00
       C26          C  0.5421770  0.0724380  0.3900270    0.00000       Uiso       1.00
       C27          C  0.9275631  0.4697400  0.3900350    0.00000       Uiso       1.00
       C28          C  0.4697390  0.5421770  0.3900170    0.00000       Uiso       1.00
       C29          C  0.4578230  0.9275630  0.3900270    0.00000       Uiso       1.00
       C30          C  0.0724380  0.5302610  0.3900350    0.00000       Uiso       1.00
       C31          C  0.6219700  0.4302580  0.4247820    0.00000       Uiso       1.00
       C32          C  0.5697430  0.1917120  0.4247850    0.00000       Uiso       1.00
       C33          C  0.8082880  0.3780310  0.4247930    0.00000       Uiso       1.00
       C34          C  0.3780310  0.5697430  0.4247820    0.00000       Uiso       1.00
       C35          C  0.4302580  0.8082880  0.4247840    0.00000       Uiso       1.00
       C36          C  0.1917120  0.6219700  0.4247930    0.00000       Uiso       1.00
       S37          S  0.5950930  0.6579670  0.3633200    0.00000       Uiso       1.00
       S38          S  0.3420330  0.9371260  0.3633380    0.00000       Uiso       1.00
       S39          S  0.0628740  0.4049070  0.3633440    0.00000       Uiso       1.00
       O40          O  0.5641140  0.6930650  0.1660250    0.00000       Uiso       1.00
       O41          O  0.3069340  0.8710480  0.1660460    0.00000       Uiso       1.00
       O42          O  0.1289520  0.4358860  0.1660500    0.00000       Uiso       1.00
       O43          O  0.6667010  0.6760460  0.2555890    0.00000       Uiso       1.00
       O44          O  0.3239540  0.9906561  0.2556080    0.00000       Uiso       1.00
       O45          O  0.0093440  0.3332990  0.2556150    0.00000       Uiso       1.00
       O46          O  0.6042870  0.6916730  0.6293810    0.00000       Uiso       1.00
       O47          O  0.3083290  0.9126150  0.6294010    0.00000       Uiso       1.00
       O48          O  0.0873850  0.3957130  0.6294060    0.00000       Uiso       1.00
       H49          H  0.5651380  0.7371140  0.2567210    0.00000       Uiso       1.00
       H50          H  0.2540700  0.8576040  0.1266390    0.00000       Uiso       1.00
       H51          H  0.1734840  0.4786840  0.2554670    0.00000       Uiso       1.00
       H52          H  0.4253330  0.3721740  0.3716690    0.00000       Uiso       1.00
       H53          H  0.6278260  0.0531590  0.3716760    0.00000       Uiso       1.00
       H54          H  0.9468410  0.5746680  0.3716860    0.00000       Uiso       1.00
       N55          N  0.5569340  0.4160600  0.3970020    0.00000       Uiso       1.00
       H56          H  0.5234320  0.3607200  0.3782410    0.00000       Uiso       1.00
       N57          N  0.5839400  0.1408740  0.3970100    0.00000       Uiso       1.00
       H58          H  0.6392800  0.1627120  0.3782530    0.00000       Uiso       1.00
       N59          N  0.8591260  0.4430660  0.3970170    0.00000       Uiso       1.00
       H60          H  0.8372880  0.4765690  0.3782570    0.00000       Uiso       1.00
       N61          N  0.4430660  0.5839400  0.3970010    0.00000       Uiso       1.00
       H62          H  0.4765690  0.6392800  0.3782400    0.00000       Uiso       1.00
       N63          N  0.4160600  0.8591259  0.3970100    0.00000       Uiso       1.00
       H64          H  0.3607200  0.8372880  0.3782550    0.00000       Uiso       1.00
       N65          N  0.1408740  0.5569340  0.3970180    0.00000       Uiso       1.00
       H66          H  0.1627120  0.5234320  0.3782590    0.00000       Uiso       1.00
       C67          C  0.5975690  0.3104850  0.4346710    0.00000       Uiso       1.00
       C68          C  0.6430000  0.3811400  0.4313530    0.00000       Uiso       1.00
       C69          C  0.6895150  0.2870840  0.4346780    0.00000       Uiso       1.00
       C70          C  0.6188600  0.2618600  0.4313540    0.00000       Uiso       1.00
       C71          C  0.7129170  0.4024320  0.4346770    0.00000       Uiso       1.00
       C72          C  0.7381400  0.3570000  0.4313590    0.00000       Uiso       1.00
       C73          C  0.4024320  0.6895150  0.4346710    0.00000       Uiso       1.00
       C74          C  0.3570000  0.6188600  0.4313520    0.00000       Uiso       1.00
       C75          C  0.3104850  0.7129170  0.4346780    0.00000       Uiso       1.00
       C76          C  0.3811400  0.7381400  0.4313540    0.00000       Uiso       1.00
       C77          C  0.2870840  0.5975690  0.4346770    0.00000       Uiso       1.00
       C78          C  0.2618600  0.6430000  0.4313590    0.00000       Uiso       1.00
       O79          O  0.5355210  0.2892740  0.4439990    0.00000       Uiso       1.00
       O80          O  0.7107260  0.2462470  0.4440110    0.00000       Uiso       1.00
       O81          O  0.7537530  0.4644800  0.4440100    0.00000       Uiso       1.00
       O82          O  0.4644800  0.7107270  0.4439970    0.00000       Uiso       1.00
       O83          O  0.2892740  0.7537530  0.4440130    0.00000       Uiso       1.00
       O84          O  0.2462470  0.5355210  0.4440110    0.00000       Uiso       1.00
