data_OH-H2P-COF
_audit_creation_date              0000-00-00
_audit_creation_method            'LanYouShi'
_symmetry_space_group_name_H-M    'P1'
_cell_length_a                    39.9528008
_cell_length_b                    32.9594002
_cell_length_c                    6.7463002
_cell_angle_alpha                 90.0000000
_cell_angle_beta                  90.0000000
_cell_angle_gamma                 90.0000000
loop_
_atom_site_label
_atom_site_type_symbol
_atom_site_fract_x
_atom_site_fract_y
_atom_site_fract_z
_atom_site_U_iso_or_equiv
_atom_site_adp_type
_atom_site_occupancy
        C1          C  0.2451030  0.7915970  0.5000010    0.00000       Uiso       1.00
        C2          C  0.7451030  0.2915970  0.5000010    0.00000       Uiso       1.00
        C3          C  0.7548970  0.2084030  0.5000010    0.00000       Uiso       1.00
        C4          C  0.2548970  0.7084020  0.5000010    0.00000       Uiso       1.00
        C5          C  0.7548970  0.7915970  0.5000010    0.00000       Uiso       1.00
        C6          C  0.2548970  0.2915970  0.5000010    0.00000       Uiso       1.00
        C7          C  0.2451030  0.2084030  0.5000010    0.00000       Uiso       1.00
        C8          C  0.7451030  0.7084020  0.5000010    0.00000       Uiso       1.00
        C9          C  0.2828020  0.7338180  0.5000010    0.00000       Uiso       1.00
       C10          C  0.7828020  0.2338180  0.5000010    0.00000       Uiso       1.00
       C11          C  0.7171980  0.2661810  0.5000010    0.00000       Uiso       1.00
       C12          C  0.2171980  0.7661810  0.5000010    0.00000       Uiso       1.00
       C13          C  0.7171980  0.7338180  0.5000010    0.00000       Uiso       1.00
       C14          C  0.2171980  0.2338180  0.5000010    0.00000       Uiso       1.00
       C15          C  0.2828020  0.2661810  0.5000010    0.00000       Uiso       1.00
       C16          C  0.7828020  0.7661810  0.5000010    0.00000       Uiso       1.00
       C17          C  0.1950900  0.6917990  0.5000010    0.00000       Uiso       1.00
       C18          C  0.6950900  0.1917990  0.5000010    0.00000       Uiso       1.00
       C19          C  0.8049100  0.3082000  0.5000010    0.00000       Uiso       1.00
       C20          C  0.3049100  0.8082000  0.5000010    0.00000       Uiso       1.00
       C21          C  0.8049100  0.6917990  0.5000010    0.00000       Uiso       1.00
       C22          C  0.3049100  0.1917990  0.5000010    0.00000       Uiso       1.00
       C23          C  0.1950900  0.3082000  0.5000010    0.00000       Uiso       1.00
       C24          C  0.6950900  0.8082000  0.5000010    0.00000       Uiso       1.00
       C25          C  0.2780870  0.7767330  0.5000010    0.00000       Uiso       1.00
       C26          C  0.7780860  0.2767330  0.5000010    0.00000       Uiso       1.00
       C27          C  0.7219130  0.2232660  0.5000010    0.00000       Uiso       1.00
       C28          C  0.2219130  0.7232660  0.5000010    0.00000       Uiso       1.00
       C29          C  0.7219130  0.7767330  0.5000010    0.00000       Uiso       1.00
       C30          C  0.2219130  0.2767330  0.5000010    0.00000       Uiso       1.00
       C31          C  0.2780870  0.2232660  0.5000010    0.00000       Uiso       1.00
       C32          C  0.7780860  0.7232660  0.5000010    0.00000       Uiso       1.00
       N33          N  0.3365290  0.7996540  0.5000010    0.00000       Uiso       1.00
       N34          N  0.8365290  0.2996540  0.5000010    0.00000       Uiso       1.00
       N35          N  0.6634710  0.2003450  0.5000010    0.00000       Uiso       1.00
       N36          N  0.1634710  0.7003450  0.5000010    0.00000       Uiso       1.00
       N37          N  0.6634710  0.7996540  0.5000010    0.00000       Uiso       1.00
       N38          N  0.1634710  0.2996540  0.5000010    0.00000       Uiso       1.00
       N39          N  0.3365290  0.2003450  0.5000010    0.00000       Uiso       1.00
       N40          N  0.8365290  0.7003450  0.5000010    0.00000       Uiso       1.00
       N41          N  0.0575180  0.5000000  0.5000010    0.00000       Uiso       1.00
       N42          N  0.5575180  0.0000000  0.5000010    0.00000       Uiso       1.00
       N43          N  0.9424821  0.5000000  0.5000010    0.00000       Uiso       1.00
       N44          N  0.4424820  0.0000000  0.5000010    0.00000       Uiso       1.00
       H45          H  0.0335160  0.5000000  0.5000010    0.00000       Uiso       1.00
       H46          H  0.5335160  0.0000000  0.5000010    0.00000       Uiso       1.00
       H47          H  0.9664840  0.5000000  0.5000010    0.00000       Uiso       1.00
       H48          H  0.4664840  0.0000000  0.5000010    0.00000       Uiso       1.00
       C49          C  0.0758100  0.4659470  0.5000010    0.00000       Uiso       1.00
       C50          C  0.5758100  0.9659470  0.5000010    0.00000       Uiso       1.00
       C51          C  0.9241899  0.5340520  0.5000010    0.00000       Uiso       1.00
       C52          C  0.4241900  0.0340530  0.5000010    0.00000       Uiso       1.00
       C53          C  0.9241899  0.4659470  0.5000010    0.00000       Uiso       1.00
       C54          C  0.4241900  0.9659470  0.5000010    0.00000       Uiso       1.00
       C55          C  0.0758100  0.5340520  0.5000010    0.00000       Uiso       1.00
       C56          C  0.5758100  0.0340530  0.5000010    0.00000       Uiso       1.00
       C57          C  0.1089870  0.4786810  0.5000010    0.00000       Uiso       1.00
       C58          C  0.6089870  0.9786810  0.5000010    0.00000       Uiso       1.00
       C59          C  0.8910130  0.5213180  0.5000010    0.00000       Uiso       1.00
       C60          C  0.3910130  0.0213180  0.5000010    0.00000       Uiso       1.00
       C61          C  0.8910130  0.4786810  0.5000010    0.00000       Uiso       1.00
       C62          C  0.3910130  0.9786810  0.5000010    0.00000       Uiso       1.00
       C63          C  0.1089870  0.5213180  0.5000010    0.00000       Uiso       1.00
       C64          C  0.6089870  0.0213180  0.5000010    0.00000       Uiso       1.00
       H65          H  0.1308580  0.4593530  0.5000010    0.00000       Uiso       1.00
       H66          H  0.6308580  0.9593530  0.5000010    0.00000       Uiso       1.00
       H67          H  0.8691419  0.5406460  0.5000010    0.00000       Uiso       1.00
       H68          H  0.3691420  0.0406460  0.5000010    0.00000       Uiso       1.00
       H69          H  0.8691419  0.4593530  0.5000010    0.00000       Uiso       1.00
       H70          H  0.3691420  0.9593530  0.5000010    0.00000       Uiso       1.00
       H71          H  0.1308580  0.5406460  0.5000010    0.00000       Uiso       1.00
       H72          H  0.6308580  0.0406460  0.5000010    0.00000       Uiso       1.00
       N73          N  0.5000000  0.9323950  0.5000010    0.00000       Uiso       1.00
       N74          N  0.0000000  0.4323950  0.5000010    0.00000       Uiso       1.00
       N75          N  0.5000000  0.0676050  0.5000010    0.00000       Uiso       1.00
       N76          N  0.0000000  0.5676040  0.5000010    0.00000       Uiso       1.00
       C77          C  0.5294580  0.9085550  0.5000010    0.00000       Uiso       1.00
       C78          C  0.0294580  0.4085550  0.5000010    0.00000       Uiso       1.00
       C79          C  0.4705410  0.0914440  0.5000010    0.00000       Uiso       1.00
       C80          C  0.9705409  0.5914440  0.5000010    0.00000       Uiso       1.00
       C81          C  0.4705410  0.9085550  0.5000010    0.00000       Uiso       1.00
       C82          C  0.9705409  0.4085550  0.5000010    0.00000       Uiso       1.00
       C83          C  0.5294580  0.0914440  0.5000010    0.00000       Uiso       1.00
       C84          C  0.0294580  0.5914440  0.5000010    0.00000       Uiso       1.00
       C85          C  0.5168970  0.8664510  0.5000010    0.00000       Uiso       1.00
       C86          C  0.0168970  0.3664510  0.5000010    0.00000       Uiso       1.00
       C87          C  0.4831030  0.1335480  0.5000010    0.00000       Uiso       1.00
       C88          C  0.9831030  0.6335480  0.5000010    0.00000       Uiso       1.00
       C89          C  0.4831030  0.8664510  0.5000010    0.00000       Uiso       1.00
       C90          C  0.9831030  0.3664510  0.5000010    0.00000       Uiso       1.00
       C91          C  0.5168970  0.1335480  0.5000010    0.00000       Uiso       1.00
       C92          C  0.0168970  0.6335480  0.5000010    0.00000       Uiso       1.00
       H93          H  0.5322310  0.8393950  0.5000010    0.00000       Uiso       1.00
       H94          H  0.0322310  0.3393950  0.5000010    0.00000       Uiso       1.00
       H95          H  0.4677690  0.1606040  0.5000010    0.00000       Uiso       1.00
       H96          H  0.9677691  0.6606040  0.5000010    0.00000       Uiso       1.00
       H97          H  0.4677690  0.8393950  0.5000010    0.00000       Uiso       1.00
       H98          H  0.9677691  0.3393950  0.5000010    0.00000       Uiso       1.00
       H99          H  0.5322310  0.1606040  0.5000010    0.00000       Uiso       1.00
      H100          H  0.0322310  0.6606040  0.5000010    0.00000       Uiso       1.00
      C101          C  0.0624760  0.4219700  0.5000010    0.00000       Uiso       1.00
      C102          C  0.5624760  0.9219700  0.5000010    0.00000       Uiso       1.00
      C103          C  0.9375240  0.5780290  0.5000010    0.00000       Uiso       1.00
      C104          C  0.4375240  0.0780290  0.5000010    0.00000       Uiso       1.00
      C105          C  0.9375240  0.4219700  0.5000010    0.00000       Uiso       1.00
      C106          C  0.4375240  0.9219700  0.5000010    0.00000       Uiso       1.00
      C107          C  0.0624760  0.5780290  0.5000010    0.00000       Uiso       1.00
      C108          C  0.5624760  0.0780290  0.5000010    0.00000       Uiso       1.00
      C109          C  0.0885470  0.3903510  0.5000010    0.00000       Uiso       1.00
      C110          C  0.5885470  0.8903510  0.5000010    0.00000       Uiso       1.00
      C111          C  0.9114530  0.6096480  0.5000010    0.00000       Uiso       1.00
      C112          C  0.4114530  0.1096490  0.5000010    0.00000       Uiso       1.00
      C113          C  0.9114530  0.3903510  0.5000010    0.00000       Uiso       1.00
      C114          C  0.4114530  0.8903510  0.5000010    0.00000       Uiso       1.00
      C115          C  0.0885470  0.6096480  0.5000010    0.00000       Uiso       1.00
      C116          C  0.5885470  0.1096490  0.5000010    0.00000       Uiso       1.00
      C117          C  0.6010220  0.8752940  0.6797660    0.00000       Uiso       1.00
      C118          C  0.1010220  0.3752940  0.6797660    0.00000       Uiso       1.00
      C119          C  0.3989780  0.1247060  0.6797660    0.00000       Uiso       1.00
      C120          C  0.8989779  0.6247050  0.6797660    0.00000       Uiso       1.00
      C121          C  0.3989780  0.8752940  0.3202370    0.00000       Uiso       1.00
      C122          C  0.8989779  0.3752940  0.3202370    0.00000       Uiso       1.00
      C123          C  0.6010220  0.1247060  0.3202370    0.00000       Uiso       1.00
      C124          C  0.1010220  0.6247050  0.3202370    0.00000       Uiso       1.00
      C125          C  0.3989780  0.1247060  0.3202370    0.00000       Uiso       1.00
      C126          C  0.8989779  0.6247050  0.3202370    0.00000       Uiso       1.00
      C127          C  0.6010220  0.8752940  0.3202370    0.00000       Uiso       1.00
      C128          C  0.1010220  0.3752940  0.3202370    0.00000       Uiso       1.00
      C129          C  0.6010220  0.1247060  0.6797660    0.00000       Uiso       1.00
      C130          C  0.1010220  0.6247050  0.6797660    0.00000       Uiso       1.00
      C131          C  0.3989780  0.8752940  0.6797660    0.00000       Uiso       1.00
      C132          C  0.8989779  0.3752940  0.6797660    0.00000       Uiso       1.00
      H133          H  0.0914490  0.3867500  0.8190490    0.00000       Uiso       1.00
      H134          H  0.5914490  0.8867500  0.8190490    0.00000       Uiso       1.00
      H135          H  0.9085500  0.6132490  0.8190490    0.00000       Uiso       1.00
      H136          H  0.4085500  0.1132490  0.8190490    0.00000       Uiso       1.00
      H137          H  0.9085500  0.3867500  0.1809540    0.00000       Uiso       1.00
      H138          H  0.4085500  0.8867500  0.1809540    0.00000       Uiso       1.00
      H139          H  0.0914490  0.6132490  0.1809540    0.00000       Uiso       1.00
      H140          H  0.5914490  0.1132490  0.1809540    0.00000       Uiso       1.00
      H141          H  0.9085500  0.6132490  0.1809540    0.00000       Uiso       1.00
      H142          H  0.4085500  0.1132490  0.1809540    0.00000       Uiso       1.00
      H143          H  0.0914490  0.3867500  0.1809540    0.00000       Uiso       1.00
      H144          H  0.5914490  0.8867500  0.1809540    0.00000       Uiso       1.00
      H145          H  0.0914490  0.6132490  0.8190490    0.00000       Uiso       1.00
      H146          H  0.5914490  0.1132490  0.8190490    0.00000       Uiso       1.00
      H147          H  0.9085500  0.3867500  0.8190490    0.00000       Uiso       1.00
      H148          H  0.4085500  0.8867500  0.8190490    0.00000       Uiso       1.00
      C149          C  0.1258130  0.3452890  0.6793890    0.00000       Uiso       1.00
      C150          C  0.6258130  0.8452890  0.6793890    0.00000       Uiso       1.00
      C151          C  0.8741871  0.6547100  0.6793890    0.00000       Uiso       1.00
      C152          C  0.3741870  0.1547110  0.6793890    0.00000       Uiso       1.00
      C153          C  0.8741871  0.3452890  0.3206140    0.00000       Uiso       1.00
      C154          C  0.3741870  0.8452890  0.3206140    0.00000       Uiso       1.00
      C155          C  0.1258130  0.6547100  0.3206140    0.00000       Uiso       1.00
      C156          C  0.6258130  0.1547110  0.3206140    0.00000       Uiso       1.00
      C157          C  0.8741871  0.6547100  0.3206140    0.00000       Uiso       1.00
      C158          C  0.3741870  0.1547110  0.3206140    0.00000       Uiso       1.00
      C159          C  0.1258130  0.3452890  0.3206140    0.00000       Uiso       1.00
      C160          C  0.6258130  0.8452890  0.3206140    0.00000       Uiso       1.00
      C161          C  0.1258130  0.6547100  0.6793890    0.00000       Uiso       1.00
      C162          C  0.6258130  0.1547110  0.6793890    0.00000       Uiso       1.00
      C163          C  0.8741871  0.3452890  0.6793890    0.00000       Uiso       1.00
      C164          C  0.3741870  0.8452890  0.6793890    0.00000       Uiso       1.00
      H165          H  0.1354280  0.3333880  0.8173890    0.00000       Uiso       1.00
      H166          H  0.6354280  0.8333880  0.8173890    0.00000       Uiso       1.00
      H167          H  0.8645720  0.6666110  0.8173890    0.00000       Uiso       1.00
      H168          H  0.3645720  0.1666110  0.8173890    0.00000       Uiso       1.00
      H169          H  0.8645720  0.3333880  0.1826140    0.00000       Uiso       1.00
      H170          H  0.3645720  0.8333880  0.1826140    0.00000       Uiso       1.00
      H171          H  0.1354280  0.6666110  0.1826140    0.00000       Uiso       1.00
      H172          H  0.6354280  0.1666110  0.1826140    0.00000       Uiso       1.00
      H173          H  0.8645720  0.6666110  0.1826140    0.00000       Uiso       1.00
      H174          H  0.3645720  0.1666110  0.1826140    0.00000       Uiso       1.00
      H175          H  0.1354280  0.3333880  0.1826140    0.00000       Uiso       1.00
      H176          H  0.6354280  0.8333880  0.1826140    0.00000       Uiso       1.00
      H177          H  0.1354280  0.6666110  0.8173890    0.00000       Uiso       1.00
      H178          H  0.6354280  0.1666110  0.8173890    0.00000       Uiso       1.00
      H179          H  0.8645720  0.3333880  0.8173890    0.00000       Uiso       1.00
      H180          H  0.3645720  0.8333880  0.8173890    0.00000       Uiso       1.00
      C181          C  0.1383180  0.3304210  0.5000010    0.00000       Uiso       1.00
      C182          C  0.6383180  0.8304200  0.5000010    0.00000       Uiso       1.00
      C183          C  0.8616820  0.6695780  0.5000010    0.00000       Uiso       1.00
      C184          C  0.3616820  0.1695790  0.5000010    0.00000       Uiso       1.00
      C185          C  0.8616820  0.3304210  0.5000010    0.00000       Uiso       1.00
      C186          C  0.3616820  0.8304200  0.5000010    0.00000       Uiso       1.00
      C187          C  0.1383180  0.6695780  0.5000010    0.00000       Uiso       1.00
      C188          C  0.6383180  0.1695790  0.5000010    0.00000       Uiso       1.00
      H189          H  0.2403730  0.8239460  0.5000010    0.00000       Uiso       1.00
      O190          O  0.3136580  0.7138420  0.5000010    0.00000       Uiso       1.00
      H191          H  0.2025890  0.6600920  0.5000010    0.00000       Uiso       1.00
      H192          H  0.3341810  0.7314870  0.5000010    0.00000       Uiso       1.00
      H193          H  0.7403730  0.3239460  0.5000010    0.00000       Uiso       1.00
      O194          O  0.8136580  0.2138430  0.5000010    0.00000       Uiso       1.00
      H195          H  0.7025890  0.1600920  0.5000010    0.00000       Uiso       1.00
      H196          H  0.8341811  0.2314870  0.5000010    0.00000       Uiso       1.00
      H197          H  0.7596270  0.1760530  0.5000010    0.00000       Uiso       1.00
      O198          O  0.6863420  0.2861570  0.5000010    0.00000       Uiso       1.00
      H199          H  0.7974110  0.3399070  0.5000010    0.00000       Uiso       1.00
      H200          H  0.6658190  0.2685120  0.5000010    0.00000       Uiso       1.00
      H201          H  0.2596270  0.6760530  0.5000010    0.00000       Uiso       1.00
      O202          O  0.1863420  0.7861560  0.5000010    0.00000       Uiso       1.00
      H203          H  0.2974110  0.8399070  0.5000010    0.00000       Uiso       1.00
      H204          H  0.1658190  0.7685120  0.5000010    0.00000       Uiso       1.00
      H205          H  0.7596270  0.8239460  0.5000010    0.00000       Uiso       1.00
      O206          O  0.6863420  0.7138420  0.5000010    0.00000       Uiso       1.00
      H207          H  0.7974110  0.6600920  0.5000010    0.00000       Uiso       1.00
      H208          H  0.6658190  0.7314870  0.5000010    0.00000       Uiso       1.00
      H209          H  0.2596270  0.3239460  0.5000010    0.00000       Uiso       1.00
      O210          O  0.1863420  0.2138430  0.5000010    0.00000       Uiso       1.00
      H211          H  0.2974110  0.1600920  0.5000010    0.00000       Uiso       1.00
      H212          H  0.1658190  0.2314870  0.5000010    0.00000       Uiso       1.00
      H213          H  0.2403730  0.1760530  0.5000010    0.00000       Uiso       1.00
      O214          O  0.3136580  0.2861570  0.5000010    0.00000       Uiso       1.00
      H215          H  0.2025890  0.3399070  0.5000010    0.00000       Uiso       1.00
      H216          H  0.3341810  0.2685120  0.5000010    0.00000       Uiso       1.00
      H217          H  0.7403730  0.6760530  0.5000010    0.00000       Uiso       1.00
      O218          O  0.8136580  0.7861560  0.5000010    0.00000       Uiso       1.00
      H219          H  0.7025890  0.8399070  0.5000010    0.00000       Uiso       1.00
      H220          H  0.8341811  0.7685120  0.5000010    0.00000       Uiso       1.00
      H221          H  0.5000000  0.9616230  0.5000010    0.00000       Uiso       1.00
      H222          H  0.0000000  0.4616240  0.5000010    0.00000       Uiso       1.00
      H223          H  0.5000000  0.0383760  0.5000010    0.00000       Uiso       1.00
      H224          H  0.0000000  0.5383750  0.5000010    0.00000       Uiso       1.00
