data_OH-TAPH-COF
_audit_creation_date              0000-00-00
_audit_creation_method            'LanYouShi'
_symmetry_space_group_name_H-M    'P1'
_cell_length_a                    25.8033009
_cell_length_b                    6.7438002
_cell_length_c                    25.8822994
_cell_angle_alpha                 90.0000000
_cell_angle_beta                  100.4100037
_cell_angle_gamma                 90.0000000
loop_
_atom_site_label
_atom_site_type_symbol
_atom_site_fract_x
_atom_site_fract_y
_atom_site_fract_z
_atom_site_U_iso_or_equiv
_atom_site_adp_type
_atom_site_occupancy
        C1          C  0.5322900  0.4999990  0.5496230    0.00000       Uiso       1.00
        C2          C  0.0464010  0.4999990  0.0365330    0.00000       Uiso       1.00
        C3          C  0.4677100  0.4999990  0.4503790    0.00000       Uiso       1.00
        C4          C  0.9535990  0.4999990  0.9634680    0.00000       Uiso       1.00
        C5          C  0.5225510  0.4999990  0.4547780    0.00000       Uiso       1.00
        C6          C  0.9507580  0.4999990  0.0167420    0.00000       Uiso       1.00
        C7          C  0.4774490  0.4999990  0.5452230    0.00000       Uiso       1.00
        C8          C  0.0492420  0.4999990  0.9832590    0.00000       Uiso       1.00
        C9          C  0.3867280  0.4999990  0.4900210    0.00000       Uiso       1.00
       C10          C  0.9974980  0.4999990  0.8869920    0.00000       Uiso       1.00
       C11          C  0.6132720  0.4999990  0.5099800    0.00000       Uiso       1.00
       C12          C  0.0025020  0.4999990  0.1130090    0.00000       Uiso       1.00
       C13          C  0.5553040  0.4999990  0.5044740    0.00000       Uiso       1.00
       C14          C  0.9982620  0.4999990  0.0547770    0.00000       Uiso       1.00
       C15          C  0.4446960  0.4999990  0.4955280    0.00000       Uiso       1.00
       C16          C  0.0017380  0.4999990  0.9452240    0.00000       Uiso       1.00
       N17          N  0.6357390  0.4999990  0.4689740    0.00000       Uiso       1.00
       N18          N  0.9621140  0.4999990  0.1362830    0.00000       Uiso       1.00
       N19          N  0.3642610  0.4999990  0.5310280    0.00000       Uiso       1.00
       N20          N  0.0378860  0.4999990  0.8637179    0.00000       Uiso       1.00
       N21          N  0.0572810  0.4999990  0.4415660    0.00000       Uiso       1.00
       N22          N  0.9427190  0.4999990  0.5584350    0.00000       Uiso       1.00
       C23          C  0.0412460  0.4999990  0.3893780    0.00000       Uiso       1.00
       C24          C  0.8902520  0.4999990  0.5434200    0.00000       Uiso       1.00
       C25          C  0.9587540  0.4999990  0.6106230    0.00000       Uiso       1.00
       C26          C  0.1097480  0.4999990  0.4565820    0.00000       Uiso       1.00
       C27          C  0.0870960  0.4999990  0.3682330    0.00000       Uiso       1.00
       C28          C  0.8700210  0.4999990  0.5896980    0.00000       Uiso       1.00
       C29          C  0.9129041  0.4999990  0.6317690    0.00000       Uiso       1.00
       C30          C  0.1299790  0.4999990  0.4103030    0.00000       Uiso       1.00
       H31          H  0.0894350  0.4999990  0.3269370    0.00000       Uiso       1.00
       H32          H  0.8288009  0.4999990  0.5928490    0.00000       Uiso       1.00
       H33          H  0.9105650  0.4999990  0.6730639    0.00000       Uiso       1.00
       H34          H  0.1711990  0.4999990  0.4071530    0.00000       Uiso       1.00
       N35          N  0.9319959  0.4999990  0.4332850    0.00000       Uiso       1.00
       N36          N  0.0680040  0.4999990  0.5667160    0.00000       Uiso       1.00
       C37          C  0.9373590  0.4999990  0.3798310    0.00000       Uiso       1.00
       C38          C  0.8786811  0.4999990  0.4396920    0.00000       Uiso       1.00
       C39          C  0.0626410  0.4999990  0.6201710    0.00000       Uiso       1.00
       C40          C  0.1213190  0.4999990  0.5603090    0.00000       Uiso       1.00
       C41          C  0.8825020  0.4999990  0.3510450    0.00000       Uiso       1.00
       C42          C  0.8488460  0.4999990  0.3853800    0.00000       Uiso       1.00
       C43          C  0.1174980  0.4999990  0.6489560    0.00000       Uiso       1.00
       C44          C  0.1511540  0.4999990  0.6146210    0.00000       Uiso       1.00
       H45          H  0.8705630  0.4999990  0.3087680    0.00000       Uiso       1.00
       H46          H  0.8063660  0.4999990  0.3742580    0.00000       Uiso       1.00
       H47          H  0.1294370  0.4999990  0.6912330    0.00000       Uiso       1.00
       H48          H  0.1936340  0.4999990  0.6257430    0.00000       Uiso       1.00
       C49          C  0.9837360  0.4999990  0.3595270    0.00000       Uiso       1.00
       C50          C  0.8592940  0.4999990  0.4864780    0.00000       Uiso       1.00
       C51          C  0.0162640  0.4999990  0.6404740    0.00000       Uiso       1.00
       C52          C  0.1407060  0.4999990  0.5135230    0.00000       Uiso       1.00
       C53          C  0.9779190  0.4999990  0.3018380    0.00000       Uiso       1.00
       C54          C  0.8015270  0.4999990  0.4817830    0.00000       Uiso       1.00
       C55          C  0.0220810  0.4999990  0.6981630    0.00000       Uiso       1.00
       C56          C  0.1984730  0.4999990  0.5182180    0.00000       Uiso       1.00
       C57          C  0.9752800  0.3201760  0.2743140    0.00000       Uiso       1.00
       C58          C  0.7739660  0.6798150  0.4796690    0.00000       Uiso       1.00
       C59          C  0.0247200  0.3201760  0.7256880    0.00000       Uiso       1.00
       C60          C  0.2260340  0.6798150  0.5203330    0.00000       Uiso       1.00
       C61          C  0.0247200  0.6798230  0.7256880    0.00000       Uiso       1.00
       C62          C  0.2260340  0.3201840  0.5203330    0.00000       Uiso       1.00
       C63          C  0.9752800  0.6798230  0.2743140    0.00000       Uiso       1.00
       C64          C  0.7739660  0.3201840  0.4796690    0.00000       Uiso       1.00
       H65          H  0.9772330  0.1808610  0.2953500    0.00000       Uiso       1.00
       H66          H  0.7950350  0.8191230  0.4812370    0.00000       Uiso       1.00
       H67          H  0.0227670  0.1808610  0.7046510    0.00000       Uiso       1.00
       H68          H  0.2049660  0.8191230  0.5187650    0.00000       Uiso       1.00
       H69          H  0.0227670  0.8191379  0.7046510    0.00000       Uiso       1.00
       H70          H  0.2049660  0.1808760  0.5187650    0.00000       Uiso       1.00
       H71          H  0.9772330  0.8191379  0.2953500    0.00000       Uiso       1.00
       H72          H  0.7950350  0.1808760  0.4812370    0.00000       Uiso       1.00
       C73          C  0.9699880  0.3205150  0.2195380    0.00000       Uiso       1.00
       C74          C  0.7191190  0.6794930  0.4753920    0.00000       Uiso       1.00
       C75          C  0.0300120  0.3205150  0.7804629    0.00000       Uiso       1.00
       C76          C  0.2808810  0.6794930  0.5246090    0.00000       Uiso       1.00
       C77          C  0.0300120  0.6794840  0.7804629    0.00000       Uiso       1.00
       C78          C  0.2808810  0.3205060  0.5246090    0.00000       Uiso       1.00
       C79          C  0.9699880  0.6794840  0.2195380    0.00000       Uiso       1.00
       C80          C  0.7191190  0.3205060  0.4753920    0.00000       Uiso       1.00
       H81          H  0.9677270  0.1823270  0.1980830    0.00000       Uiso       1.00
       H82          H  0.6976700  0.8177490  0.4735490    0.00000       Uiso       1.00
       H83          H  0.0322730  0.1823270  0.8019181    0.00000       Uiso       1.00
       H84          H  0.3023300  0.8177490  0.5264530    0.00000       Uiso       1.00
       H85          H  0.0322730  0.8176721  0.8019181    0.00000       Uiso       1.00
       H86          H  0.3023300  0.1822500  0.5264530    0.00000       Uiso       1.00
       H87          H  0.9677270  0.8176721  0.1980830    0.00000       Uiso       1.00
       H88          H  0.6976700  0.1822500  0.4735490    0.00000       Uiso       1.00
       C89          C  0.9675921  0.4999990  0.1921610    0.00000       Uiso       1.00
       C90          C  0.6916950  0.4999990  0.4734730    0.00000       Uiso       1.00
       C91          C  0.0324080  0.4999990  0.8078399    0.00000       Uiso       1.00
       C92          C  0.3083050  0.4999990  0.5265280    0.00000       Uiso       1.00
       H93          H  0.5567600  0.4999990  0.5883230    0.00000       Uiso       1.00
       H94          H  0.5394800  0.4999990  0.4194040    0.00000       Uiso       1.00
       H95          H  0.3628340  0.4999990  0.4509320    0.00000       Uiso       1.00
       H96          H  0.0834260  0.4999990  0.0639860    0.00000       Uiso       1.00
       O97          O  0.8996870  0.4999990  0.0277460    0.00000       Uiso       1.00
       H98          H  0.9583260  0.4999990  0.8629841    0.00000       Uiso       1.00
       H99          H  0.8963830  0.4999990  0.0658250    0.00000       Uiso       1.00
      H100          H  0.9613950  0.4999990  0.4621240    0.00000       Uiso       1.00
      H101          H  0.4432400  0.4999990  0.4116780    0.00000       Uiso       1.00
      H102          H  0.4605200  0.4999990  0.5805970    0.00000       Uiso       1.00
      H103          H  0.6371660  0.4999990  0.5490690    0.00000       Uiso       1.00
      H104          H  0.9165740  0.4999990  0.9360150    0.00000       Uiso       1.00
      O105          O  0.1003130  0.4999990  0.9722550    0.00000       Uiso       1.00
      H106          H  0.0416740  0.4999990  0.1370180    0.00000       Uiso       1.00
      H107          H  0.1036170  0.4999990  0.9341760    0.00000       Uiso       1.00
      H108          H  0.0386050  0.4999990  0.5378770    0.00000       Uiso       1.00
