data_PC-COF
_audit_creation_date              0000-00-00
_audit_creation_method            'LanYouShi'
_symmetry_space_group_name_H-M    'P1'
_cell_length_a                    61.0419006
_cell_length_b                    3.5335000
_cell_length_c                    59.1305008
_cell_angle_alpha                 90.0000000
_cell_angle_beta                  61.0662003
_cell_angle_gamma                 90.0000000
loop_
_atom_site_label
_atom_site_type_symbol
_atom_site_fract_x
_atom_site_fract_y
_atom_site_fract_z
_atom_site_U_iso_or_equiv
_atom_site_adp_type
_atom_site_occupancy
        C1          C  0.3409340  0.5000030  0.3498530    0.00000       Uiso       1.00
        C2          C  0.3143240  0.5000030  0.3629790    0.00000       Uiso       1.00
        C3          C  0.2989420  0.5000030  0.3509480    0.00000       Uiso       1.00
        C4          C  0.3124690  0.5000030  0.3234640    0.00000       Uiso       1.00
        C5          C  0.3389220  0.5000030  0.3080290    0.00000       Uiso       1.00
        C6          C  0.3518370  0.5000030  0.3225360    0.00000       Uiso       1.00
        H7          H  0.3053670  0.5000030  0.3849510    0.00000       Uiso       1.00
        H8          H  0.3019680  0.5000030  0.3119250    0.00000       Uiso       1.00
        H9          H  0.3731740  0.5000030  0.3121800    0.00000       Uiso       1.00
       C10          C  0.3517740  0.5000030  0.2800480    0.00000       Uiso       1.00
       C11          C  0.3784450  0.5000030  0.2648150    0.00000       Uiso       1.00
       C12          C  0.3911710  0.5000030  0.2376460    0.00000       Uiso       1.00
       C13          C  0.3780470  0.5000030  0.2236580    0.00000       Uiso       1.00
       C14          C  0.3516990  0.5000030  0.2378180    0.00000       Uiso       1.00
       C15          C  0.3391030  0.5000030  0.2650810    0.00000       Uiso       1.00
       H16          H  0.3894630  0.5000030  0.2758240    0.00000       Uiso       1.00
       H17          H  0.4125060  0.5000030  0.2266250    0.00000       Uiso       1.00
       H18          H  0.3402620  0.5000030  0.2272530    0.00000       Uiso       1.00
       H19          H  0.3177710  0.5000030  0.2762440    0.00000       Uiso       1.00
       C20          C  0.2718630  0.5000030  0.3652520    0.00000       Uiso       1.00
       C21          C  0.2563150  0.5000030  0.3533080    0.00000       Uiso       1.00
       C22          C  0.2299660  0.5000030  0.3674060    0.00000       Uiso       1.00
       C23          C  0.2173200  0.5000030  0.3945040    0.00000       Uiso       1.00
       C24          C  0.2318960  0.5000030  0.4070650    0.00000       Uiso       1.00
       C25          C  0.2581860  0.5000030  0.3928180    0.00000       Uiso       1.00
       H26          H  0.2662490  0.5000030  0.3312840    0.00000       Uiso       1.00
       H27          H  0.2185770  0.5000030  0.3567900    0.00000       Uiso       1.00
       H28          H  0.2223980  0.5000030  0.4290730    0.00000       Uiso       1.00
       H29          H  0.2697120  0.5000030  0.4032870    0.00000       Uiso       1.00
       C30          C  0.3559320  0.5000030  0.3627520    0.00000       Uiso       1.00
       C31          C  0.3827020  0.5000030  0.3491580    0.00000       Uiso       1.00
       C32          C  0.3974380  0.5000030  0.3614740    0.00000       Uiso       1.00
       C33          C  0.3862830  0.5000030  0.3886030    0.00000       Uiso       1.00
       C34          C  0.3600260  0.5000030  0.4027270    0.00000       Uiso       1.00
       C35          C  0.3453860  0.5000030  0.3902020    0.00000       Uiso       1.00
       H36          H  0.3920280  0.5000030  0.3271590    0.00000       Uiso       1.00
       H37          H  0.4187230  0.5000030  0.3494700    0.00000       Uiso       1.00
       H38          H  0.3501530  0.5000030  0.4247500    0.00000       Uiso       1.00
       H39          H  0.3240910  0.5000030  0.4020800    0.00000       Uiso       1.00
       C40          C  0.1491930  0.5000030  0.4417960    0.00000       Uiso       1.00
       C41          C  0.1329010  0.5000030  0.4686770    0.00000       Uiso       1.00
       C42          C  0.1067980  0.5000030  0.4787250    0.00000       Uiso       1.00
       C43          C  0.0951640  0.5000030  0.4628330    0.00000       Uiso       1.00
       C44          C  0.1122090  0.5000030  0.4357320    0.00000       Uiso       1.00
       C45          C  0.1383760  0.5000030  0.4254770    0.00000       Uiso       1.00
       H46          H  0.1411620  0.5000030  0.4823280    0.00000       Uiso       1.00
       H47          H  0.0938890  0.5000030  0.5005240    0.00000       Uiso       1.00
       H48          H  0.1047860  0.5000030  0.4213640    0.00000       Uiso       1.00
       H49          H  0.1511560  0.5000030  0.4036550    0.00000       Uiso       1.00
       N50          N  0.0683890  0.5000030  0.4733980    0.00000       Uiso       1.00
       C51          C  0.0566110  0.5000030  0.4577430    0.00000       Uiso       1.00
       C52          C  0.0304520  0.5000030  0.4680670    0.00000       Uiso       1.00
       C53          C  0.0133590  0.5000030  0.4949780    0.00000       Uiso       1.00
       C54          C  0.0251130  0.5000030  0.5107280    0.00000       Uiso       1.00
       C55          C  0.0513110  0.5000030  0.5003900    0.00000       Uiso       1.00
       H56          H  0.0693370  0.5000030  0.4359120    0.00000       Uiso       1.00
       H57          H  0.0219820  0.5000030  0.4546020    0.00000       Uiso       1.00
       H58          H  0.0132290  0.5000030  0.5326760    0.00000       Uiso       1.00
       H59          H  0.0597790  0.5000030  0.5138570    0.00000       Uiso       1.00
       C60          C  0.1752680  0.5000030  0.4321330    0.00000       Uiso       1.00
       N61          N  0.1919460  0.5000030  0.4065790    0.00000       Uiso       1.00
       H62          H  0.1821530  0.5000030  0.4469430    0.00000       Uiso       1.00
       C63          C  0.5654460  0.5000030  0.5898190    0.00000       Uiso       1.00
       C64          C  0.5392040  0.5000030  0.6004010    0.00000       Uiso       1.00
       C65          C  0.5280480  0.5000030  0.5844260    0.00000       Uiso       1.00
       C66          C  0.5421080  0.5000030  0.5569040    0.00000       Uiso       1.00
       C67          C  0.5685940  0.5000030  0.5468040    0.00000       Uiso       1.00
       C68          C  0.5799750  0.5000030  0.5626390    0.00000       Uiso       1.00
       H69          H  0.5269850  0.5000030  0.6223100    0.00000       Uiso       1.00
       H70          H  0.5067880  0.5000030  0.5933860    0.00000       Uiso       1.00
       H71          H  0.5815680  0.5000030  0.5250180    0.00000       Uiso       1.00
       H72          H  0.6012500  0.5000030  0.5535120    0.00000       Uiso       1.00
       N73          N  0.5303890  0.5000030  0.5407880    0.00000       Uiso       1.00
       C74          C  0.5440630  0.5000030  0.5133300    0.00000       Uiso       1.00
       C75          C  0.5324820  0.5000030  0.4976600    0.00000       Uiso       1.00
       C76          C  0.5060340  0.5000030  0.5078900    0.00000       Uiso       1.00
       C77          C  0.4924150  0.5000030  0.5353170    0.00000       Uiso       1.00
       C78          C  0.5039910  0.5000030  0.5509220    0.00000       Uiso       1.00
       H79          H  0.5653499  0.5000030  0.5040440    0.00000       Uiso       1.00
       H80          H  0.5444160  0.5000030  0.4757170    0.00000       Uiso       1.00
       H81          H  0.4710780  0.5000030  0.5456980    0.00000       Uiso       1.00
       H82          H  0.4920770  0.5000030  0.5728670    0.00000       Uiso       1.00
       C83          C  0.5759610  0.5000030  0.6064530    0.00000       Uiso       1.00
       N84          N  0.6009430  0.5000030  0.5979080    0.00000       Uiso       1.00
       H85          H  0.5622780  0.5000030  0.6280810    0.00000       Uiso       1.00
       C86          C  0.4027040  0.5000030  0.1522830    0.00000       Uiso       1.00
       C87          C  0.3945340  0.5000030  0.1336850    0.00000       Uiso       1.00
       C88          C  0.4117410  0.5000030  0.1070820    0.00000       Uiso       1.00
       C89          C  0.4381760  0.5000030  0.0971000    0.00000       Uiso       1.00
       C90          C  0.4458630  0.5000030  0.1163830    0.00000       Uiso       1.00
       C91          C  0.4287650  0.5000030  0.1430660    0.00000       Uiso       1.00
       H92          H  0.3735730  0.5000030  0.1405400    0.00000       Uiso       1.00
       H93          H  0.4047240  0.5000030  0.0923790    0.00000       Uiso       1.00
       H94          H  0.4666310  0.5000030  0.1104400    0.00000       Uiso       1.00
       H95          H  0.4359190  0.5000030  0.1576560    0.00000       Uiso       1.00
       N96          N  0.4555370  0.5000030  0.0697670    0.00000       Uiso       1.00
       C97          C  0.4819260  0.5000030  0.0595790    0.00000       Uiso       1.00
       C98          C  0.4989720  0.5000030  0.0328850    0.00000       Uiso       1.00
       C99          C  0.4913290  0.5000030  0.0136490    0.00000       Uiso       1.00
      C100          C  0.4649550  0.5000030  0.0237900    0.00000       Uiso       1.00
      C101          C  0.4479390  0.5000030  0.0504770    0.00000       Uiso       1.00
      H102          H  0.4891310  0.5000030  0.0741280    0.00000       Uiso       1.00
      H103          H  0.5199700  0.5000030  0.0258350    0.00000       Uiso       1.00
      H104          H  0.4567030  0.5000030  0.0101320    0.00000       Uiso       1.00
      H105          H  0.4269370  0.5000030  0.0575510    0.00000       Uiso       1.00
      C106          C  0.3851140  0.5000030  0.1788870    0.00000       Uiso       1.00
      N107          N  0.3919770  0.5000030  0.1975030    0.00000       Uiso       1.00
      H108          H  0.3644350  0.5000030  0.1844560    0.00000       Uiso       1.00
     Cl109         Cl  0.7064530  0.3259410  0.4101630    0.00000       Uiso       1.00
     Cl110         Cl  0.5265400  0.6168000  0.1200550    0.00000       Uiso       1.00
     Cl111         Cl  0.0965830  0.4874450  0.3535330    0.00000       Uiso       1.00
      C112          C  0.6590670  0.5000030  0.6501470    0.00000       Uiso       1.00
      C113          C  0.6856760  0.5000030  0.6370210    0.00000       Uiso       1.00
      C114          C  0.7010579  0.5000030  0.6490520    0.00000       Uiso       1.00
      C115          C  0.6875309  0.5000030  0.6765360    0.00000       Uiso       1.00
      C116          C  0.6610790  0.5000030  0.6919710    0.00000       Uiso       1.00
      C117          C  0.6481630  0.5000030  0.6774640    0.00000       Uiso       1.00
      H118          H  0.6946329  0.5000030  0.6150490    0.00000       Uiso       1.00
      H119          H  0.6980320  0.5000030  0.6880749    0.00000       Uiso       1.00
      H120          H  0.6268270  0.5000030  0.6878200    0.00000       Uiso       1.00
      C121          C  0.6482260  0.5000030  0.7199520    0.00000       Uiso       1.00
      C122          C  0.6215550  0.5000030  0.7351850    0.00000       Uiso       1.00
      C123          C  0.6088290  0.5000030  0.7623540    0.00000       Uiso       1.00
      C124          C  0.6219540  0.5000030  0.7763420    0.00000       Uiso       1.00
      C125          C  0.6483021  0.5000030  0.7621820    0.00000       Uiso       1.00
      C126          C  0.6608980  0.5000030  0.7349190    0.00000       Uiso       1.00
      H127          H  0.6105380  0.5000030  0.7241760    0.00000       Uiso       1.00
      H128          H  0.5874940  0.5000030  0.7733750    0.00000       Uiso       1.00
      H129          H  0.6597380  0.5000030  0.7727470    0.00000       Uiso       1.00
      H130          H  0.6822300  0.5000030  0.7237560    0.00000       Uiso       1.00
      C131          C  0.7281370  0.5000030  0.6347480    0.00000       Uiso       1.00
      C132          C  0.7436850  0.5000030  0.6466920    0.00000       Uiso       1.00
      C133          C  0.7700350  0.5000030  0.6325940    0.00000       Uiso       1.00
      C134          C  0.7826809  0.5000030  0.6054960    0.00000       Uiso       1.00
      C135          C  0.7681050  0.5000030  0.5929340    0.00000       Uiso       1.00
      C136          C  0.7418150  0.5000030  0.6071820    0.00000       Uiso       1.00
      H137          H  0.7337510  0.5000030  0.6687160    0.00000       Uiso       1.00
      H138          H  0.7814240  0.5000030  0.6432100    0.00000       Uiso       1.00
      H139          H  0.7776020  0.5000030  0.5709260    0.00000       Uiso       1.00
      H140          H  0.7302890  0.5000030  0.5967130    0.00000       Uiso       1.00
      C141          C  0.6440690  0.5000030  0.6372480    0.00000       Uiso       1.00
      C142          C  0.6172991  0.5000030  0.6508420    0.00000       Uiso       1.00
      C143          C  0.6025620  0.5000030  0.6385260    0.00000       Uiso       1.00
      C144          C  0.6137170  0.5000030  0.6113970    0.00000       Uiso       1.00
      C145          C  0.6399740  0.5000030  0.5972730    0.00000       Uiso       1.00
      C146          C  0.6546140  0.5000030  0.6097980    0.00000       Uiso       1.00
      H147          H  0.6079730  0.5000030  0.6728410    0.00000       Uiso       1.00
      H148          H  0.5812770  0.5000030  0.6505300    0.00000       Uiso       1.00
      H149          H  0.6498479  0.5000030  0.5752500    0.00000       Uiso       1.00
      H150          H  0.6759090  0.5000030  0.5979200    0.00000       Uiso       1.00
      C151          C  0.8508070  0.5000030  0.5582040    0.00000       Uiso       1.00
      C152          C  0.8670990  0.5000030  0.5313230    0.00000       Uiso       1.00
      C153          C  0.8932030  0.5000030  0.5212750    0.00000       Uiso       1.00
      C154          C  0.9048370  0.5000030  0.5371670    0.00000       Uiso       1.00
      C155          C  0.8877910  0.5000030  0.5642680    0.00000       Uiso       1.00
      C156          C  0.8616240  0.5000030  0.5745220    0.00000       Uiso       1.00
      H157          H  0.8588380  0.5000030  0.5176720    0.00000       Uiso       1.00
      H158          H  0.9061111  0.5000030  0.4994760    0.00000       Uiso       1.00
      H159          H  0.8952150  0.5000030  0.5786360    0.00000       Uiso       1.00
      H160          H  0.8488449  0.5000030  0.5963450    0.00000       Uiso       1.00
      N161          N  0.9316120  0.5000030  0.5266020    0.00000       Uiso       1.00
      C162          C  0.9433900  0.5000030  0.5422570    0.00000       Uiso       1.00
      C163          C  0.9695480  0.5000030  0.5319320    0.00000       Uiso       1.00
      C164          C  0.9866410  0.5000030  0.5050220    0.00000       Uiso       1.00
      C165          C  0.9748871  0.5000030  0.4892720    0.00000       Uiso       1.00
      C166          C  0.9486890  0.5000030  0.4996100    0.00000       Uiso       1.00
      H167          H  0.9306630  0.5000030  0.5640880    0.00000       Uiso       1.00
      H168          H  0.9780180  0.5000030  0.5453980    0.00000       Uiso       1.00
      H169          H  0.9867709  0.5000030  0.4673240    0.00000       Uiso       1.00
      H170          H  0.9402210  0.5000030  0.4861430    0.00000       Uiso       1.00
      C171          C  0.8247319  0.5000030  0.5678670    0.00000       Uiso       1.00
      N172          N  0.8080550  0.5000030  0.5934210    0.00000       Uiso       1.00
      H173          H  0.8178470  0.5000030  0.5530570    0.00000       Uiso       1.00
      C174          C  0.4345550  0.5000030  0.4101800    0.00000       Uiso       1.00
      C175          C  0.4607970  0.5000030  0.3995990    0.00000       Uiso       1.00
      C176          C  0.4719520  0.5000030  0.4155740    0.00000       Uiso       1.00
      C177          C  0.4578920  0.5000030  0.4430960    0.00000       Uiso       1.00
      C178          C  0.4314070  0.5000030  0.4531960    0.00000       Uiso       1.00
      C179          C  0.4200250  0.5000030  0.4373610    0.00000       Uiso       1.00
      H180          H  0.4730150  0.5000030  0.3776900    0.00000       Uiso       1.00
      H181          H  0.4932130  0.5000030  0.4066140    0.00000       Uiso       1.00
      H182          H  0.4184320  0.5000030  0.4749820    0.00000       Uiso       1.00
      H183          H  0.3987500  0.5000030  0.4464880    0.00000       Uiso       1.00
      N184          N  0.4696110  0.5000030  0.4592120    0.00000       Uiso       1.00
      C185          C  0.4559370  0.5000030  0.4866700    0.00000       Uiso       1.00
      C186          C  0.4675180  0.5000030  0.5023400    0.00000       Uiso       1.00
      C187          C  0.4939670  0.5000030  0.4921100    0.00000       Uiso       1.00
      C188          C  0.5075850  0.5000030  0.4646830    0.00000       Uiso       1.00
      C189          C  0.4960090  0.5000030  0.4490780    0.00000       Uiso       1.00
      H190          H  0.4346500  0.5000030  0.4959560    0.00000       Uiso       1.00
      H191          H  0.4555850  0.5000030  0.5242830    0.00000       Uiso       1.00
      H192          H  0.5289220  0.5000030  0.4543020    0.00000       Uiso       1.00
      H193          H  0.5079240  0.5000030  0.4271330    0.00000       Uiso       1.00
      C194          C  0.4240390  0.5000030  0.3935470    0.00000       Uiso       1.00
      N195          N  0.3990570  0.5000030  0.4020920    0.00000       Uiso       1.00
      H196          H  0.4377220  0.5000030  0.3719180    0.00000       Uiso       1.00
      C197          C  0.5972970  0.5000030  0.8477170    0.00000       Uiso       1.00
      C198          C  0.6054660  0.5000030  0.8663150    0.00000       Uiso       1.00
      C199          C  0.5882600  0.5000030  0.8929180    0.00000       Uiso       1.00
      C200          C  0.5618250  0.5000030  0.9029000    0.00000       Uiso       1.00
      C201          C  0.5541380  0.5000030  0.8836170    0.00000       Uiso       1.00
      C202          C  0.5712360  0.5000030  0.8569340    0.00000       Uiso       1.00
      H203          H  0.6264280  0.5000030  0.8594601    0.00000       Uiso       1.00
      H204          H  0.5952770  0.5000030  0.9076210    0.00000       Uiso       1.00
      H205          H  0.5333690  0.5000030  0.8895600    0.00000       Uiso       1.00
      H206          H  0.5640810  0.5000030  0.8423439    0.00000       Uiso       1.00
      N207          N  0.5444630  0.5000030  0.9302330    0.00000       Uiso       1.00
      C208          C  0.5180739  0.5000030  0.9404210    0.00000       Uiso       1.00
      C209          C  0.5010280  0.5000030  0.9671150    0.00000       Uiso       1.00
      C210          C  0.5086710  0.5000030  0.9863510    0.00000       Uiso       1.00
      C211          C  0.5350460  0.5000030  0.9762100    0.00000       Uiso       1.00
      C212          C  0.5520610  0.5000030  0.9495230    0.00000       Uiso       1.00
      H213          H  0.5108690  0.5000030  0.9258720    0.00000       Uiso       1.00
      H214          H  0.4800310  0.5000030  0.9741650    0.00000       Uiso       1.00
      H215          H  0.5432980  0.5000030  0.9898680    0.00000       Uiso       1.00
      H216          H  0.5730631  0.5000030  0.9424489    0.00000       Uiso       1.00
      C217          C  0.6148860  0.5000030  0.8211130    0.00000       Uiso       1.00
      N218          N  0.6080240  0.5000030  0.8024970    0.00000       Uiso       1.00
      H219          H  0.6355650  0.5000030  0.8155440    0.00000       Uiso       1.00
     Cl220         Cl  0.2935470  0.6740649  0.5898370    0.00000       Uiso       1.00
     Cl221         Cl  0.4734600  0.3832060  0.8799450    0.00000       Uiso       1.00
     Cl222         Cl  0.9034179  0.5125610  0.6464670    0.00000       Uiso       1.00
