data_PCTF-1
_audit_creation_date              0000-00-00
_audit_creation_method            'LanYouShi'
_symmetry_space_group_name_H-M    'P1'
_cell_length_a                    19.6639004
_cell_length_b                    19.6639004
_cell_length_c                    4.3151002
_cell_angle_alpha                 90.0000000
_cell_angle_beta                  90.0000000
_cell_angle_gamma                 120.0000000
loop_
_atom_site_label
_atom_site_type_symbol
_atom_site_fract_x
_atom_site_fract_y
_atom_site_fract_z
_atom_site_U_iso_or_equiv
_atom_site_adp_type
_atom_site_occupancy
        C1          C  0.2525760  0.6262880  0.5000060    0.00000       Uiso       1.00
        C2          C  0.3737120  0.6262880  0.5000060    0.00000       Uiso       1.00
        C3          C  0.3737120  0.7474250  0.5000060    0.00000       Uiso       1.00
        N4          N  0.2940860  0.5881720  0.5000060    0.00000       Uiso       1.00
        N5          N  0.4118280  0.7059140  0.5000060    0.00000       Uiso       1.00
        N6          N  0.2940860  0.7059140  0.5000060    0.00000       Uiso       1.00
        C7          C  0.1694540  0.5847270  0.5000060    0.00000       Uiso       1.00
        C8          C  0.4152730  0.5847270  0.5000060    0.00000       Uiso       1.00
        C9          C  0.4152730  0.8305470  0.5000060    0.00000       Uiso       1.00
       C10          C  0.1262580  0.5035200  0.5713130    0.00000       Uiso       1.00
       C11          C  0.4964810  0.6227390  0.5713130    0.00000       Uiso       1.00
       C12          C  0.3772620  0.8737420  0.5713130    0.00000       Uiso       1.00
       C13          C  0.4964810  0.8737420  0.4286990    0.00000       Uiso       1.00
       C14          C  0.3772620  0.5035200  0.4286990    0.00000       Uiso       1.00
       C15          C  0.1262580  0.6227390  0.4286990    0.00000       Uiso       1.00
       C16          C  0.0436320  0.5814560  0.4284150    0.00000       Uiso       1.00
       C17          C  0.4185440  0.4621760  0.4284150    0.00000       Uiso       1.00
       C18          C  0.5378240  0.9563690  0.4284150    0.00000       Uiso       1.00
       C19          C  0.4185440  0.9563690  0.5715970    0.00000       Uiso       1.00
       C20          C  0.5378250  0.5814560  0.5715970    0.00000       Uiso       1.00
       C21          C  0.0436320  0.4621760  0.5715970    0.00000       Uiso       1.00
       C22          C  0.5546920  0.2072530  0.3343940    0.00000       Uiso       1.00
       C23          C  0.5129800  0.1246110  0.3326200    0.00000       Uiso       1.00
       H24          H  0.5321140  0.2353000  0.2119720    0.00000       Uiso       1.00
       H25          H  0.4623940  0.0958490  0.2052950    0.00000       Uiso       1.00
       C26          C  0.7927470  0.3474380  0.3343940    0.00000       Uiso       1.00
       C27          C  0.8753890  0.3883690  0.3326200    0.00000       Uiso       1.00
       H28          H  0.7647010  0.2968140  0.2119720    0.00000       Uiso       1.00
       H29          H  0.9041520  0.3665450  0.2052950    0.00000       Uiso       1.00
       C30          C  0.6525620  0.4453090  0.3343940    0.00000       Uiso       1.00
       C31          C  0.6116320  0.4870200  0.3326200    0.00000       Uiso       1.00
       H32          H  0.7031860  0.4678870  0.2119720    0.00000       Uiso       1.00
       H33          H  0.6334550  0.5376060  0.2052950    0.00000       Uiso       1.00
       C34          C  0.7927470  0.4453090  0.6656180    0.00000       Uiso       1.00
       C35          C  0.8753890  0.4870200  0.6673920    0.00000       Uiso       1.00
       H36          H  0.7647010  0.4678870  0.7880390    0.00000       Uiso       1.00
       H37          H  0.9041520  0.5376060  0.7947160    0.00000       Uiso       1.00
       C38          C  0.6525620  0.2072530  0.6656180    0.00000       Uiso       1.00
       C39          C  0.6116320  0.1246110  0.6673920    0.00000       Uiso       1.00
       H40          H  0.7031860  0.2353000  0.7880390    0.00000       Uiso       1.00
       H41          H  0.6334550  0.0958490  0.7947160    0.00000       Uiso       1.00
       C42          C  0.5546920  0.3474380  0.6656180    0.00000       Uiso       1.00
       C43          C  0.5129800  0.3883690  0.6673920    0.00000       Uiso       1.00
       H44          H  0.5321140  0.2968140  0.7880390    0.00000       Uiso       1.00
       H45          H  0.4623940  0.3665450  0.7947160    0.00000       Uiso       1.00
       N46          N  0.6666670  0.3333330  0.5000060    0.00000       Uiso       1.00
       C47          C  0.6258750  0.2517500  0.5000060    0.00000       Uiso       1.00
       C48          C  0.5409500  0.0818990  0.5000060    0.00000       Uiso       1.00
       C49          C  0.7482510  0.3741250  0.5000060    0.00000       Uiso       1.00
       C50          C  0.9181010  0.4590510  0.5000060    0.00000       Uiso       1.00
       C51          C  0.6258750  0.3741250  0.5000060    0.00000       Uiso       1.00
       C52          C  0.5409500  0.4590510  0.5000060    0.00000       Uiso       1.00
       H53          H  0.1547300  0.4735180  0.6260220    0.00000       Uiso       1.00
       H54          H  0.5264830  0.6812130  0.6260220    0.00000       Uiso       1.00
       H55          H  0.3187880  0.8452700  0.6260220    0.00000       Uiso       1.00
       H56          H  0.5264830  0.8452700  0.3739890    0.00000       Uiso       1.00
       H57          H  0.3187880  0.4735180  0.3739890    0.00000       Uiso       1.00
       H58          H  0.1547300  0.6812130  0.3739890    0.00000       Uiso       1.00
       C59          C  0.0010350  0.5005180  0.5000060    0.00000       Uiso       1.00
       C60          C  0.4994830  0.5005180  0.5000060    0.00000       Uiso       1.00
       C61          C  0.4994830  0.9989650  0.5000060    0.00000       Uiso       1.00
       H62          H  0.0146910  0.4037450  0.6270500    0.00000       Uiso       1.00
       H63          H  0.0146910  0.6109470  0.3729610    0.00000       Uiso       1.00
       H64          H  0.5962560  0.6109470  0.6270500    0.00000       Uiso       1.00
       H65          H  0.3890540  0.4037450  0.3729610    0.00000       Uiso       1.00
       H66          H  0.3890540  0.9853101  0.6270500    0.00000       Uiso       1.00
       H67          H  0.5962560  0.9853101  0.3729610    0.00000       Uiso       1.00
