data_PCTF-3
_audit_creation_date              0000-00-00
_audit_creation_method            'LanYouShi'
_symmetry_space_group_name_H-M    'P1'
_cell_length_a                    34.8026009
_cell_length_b                    34.8036003
_cell_length_c                    4.0692000
_cell_angle_alpha                 85.0169983
_cell_angle_beta                  85.1597977
_cell_angle_gamma                 121.4714966
loop_
_atom_site_label
_atom_site_type_symbol
_atom_site_fract_x
_atom_site_fract_y
_atom_site_fract_z
_atom_site_U_iso_or_equiv
_atom_site_adp_type
_atom_site_occupancy
        C1          C  0.7110630  0.3567790  0.5714280    0.00000       Uiso       1.00
        C2          C  0.6416980  0.3583470  0.4992850    0.00000       Uiso       1.00
        C3          C  0.6432200  0.2889880  0.4266610    0.00000       Uiso       1.00
        C4          C  0.6883610  0.3116600  0.4989890    0.00000       Uiso       1.00
        C5          C  0.6860750  0.3783260  0.5861240    0.00000       Uiso       1.00
        C6          C  0.6216860  0.3139970  0.4122260    0.00000       Uiso       1.00
        H7          H  0.7051750  0.2948410  0.4989400    0.00000       Uiso       1.00
        H8          H  0.7007510  0.4094740  0.6638670    0.00000       Uiso       1.00
        H9          H  0.5905190  0.2993580  0.3345540    0.00000       Uiso       1.00
       C10          C  0.7574340  0.3799190  0.6205620    0.00000       Uiso       1.00
       C11          C  0.6182540  0.3817910  0.4995650    0.00000       Uiso       1.00
       C12          C  0.6200480  0.2426260  0.3775090    0.00000       Uiso       1.00
       C13          C  0.2875560  0.6402930  0.5493340    0.00000       Uiso       1.00
       C14          C  0.3581530  0.6418570  0.5009630    0.00000       Uiso       1.00
       C15          C  0.3596830  0.7124540  0.4515570    0.00000       Uiso       1.00
       C16          C  0.7756220  0.3575630  0.7956910    0.00000       Uiso       1.00
       C17          C  0.3440950  0.7382710  0.2859250    0.00000       Uiso       1.00
       C18          C  0.6417170  0.4297690  0.4111370    0.00000       Uiso       1.00
       C19          C  0.2608250  0.5977860  0.4361410    0.00000       Uiso       1.00
       C20          C  0.5734570  0.2122350  0.5127780    0.00000       Uiso       1.00
       C21          C  0.4008190  0.6591680  0.2986870    0.00000       Uiso       1.00
       C22          C  0.6423670  0.2244360  0.2028050    0.00000       Uiso       1.00
       C23          C  0.2617370  0.6558490  0.7144500    0.00000       Uiso       1.00
       C24          C  0.5702970  0.3583080  0.5883430    0.00000       Uiso       1.00
       C25          C  0.4021970  0.7392000  0.5648660    0.00000       Uiso       1.00
       C26          C  0.7878250  0.4265150  0.4849220    0.00000       Uiso       1.00
       C27          C  0.3408680  0.5991720  0.7035700    0.00000       Uiso       1.00
       C28          C  0.8221970  0.3803500  0.8263830    0.00000       Uiso       1.00
       C29          C  0.3675520  0.7861441  0.2473210    0.00000       Uiso       1.00
       C30          C  0.6186410  0.4530130  0.4189940    0.00000       Uiso       1.00
       C31          C  0.2129030  0.5732650  0.4765270    0.00000       Uiso       1.00
       C32          C  0.5504650  0.1658140  0.4791900    0.00000       Uiso       1.00
       C33          C  0.4243870  0.6363940  0.2975050    0.00000       Uiso       1.00
       C34          C  0.6195590  0.1778620  0.1722660    0.00000       Uiso       1.00
       C35          C  0.2138710  0.6323710  0.7526820    0.00000       Uiso       1.00
       C36          C  0.5470510  0.3813880  0.5812140    0.00000       Uiso       1.00
       C37          C  0.4266920  0.7871280  0.5241750    0.00000       Uiso       1.00
       C38          C  0.8342490  0.4494840  0.5186350    0.00000       Uiso       1.00
       C39          C  0.3636410  0.5756010  0.7051960    0.00000       Uiso       1.00
       C40          C  0.8524750  0.4265700  0.6839120    0.00000       Uiso       1.00
       C41          C  0.5705310  0.4295170  0.5003020    0.00000       Uiso       1.00
       C42          C  0.5733490  0.1475840  0.3144490    0.00000       Uiso       1.00
       C43          C  0.1886610  0.5906209  0.6322720    0.00000       Uiso       1.00
       C44          C  0.4060290  0.5939780  0.5014460    0.00000       Uiso       1.00
       C45          C  0.4093070  0.8113660  0.3678920    0.00000       Uiso       1.00
       H46          H  0.7550690  0.3242310  0.9039100    0.00000       Uiso       1.00
       H47          H  0.3144480  0.7221860  0.1926400    0.00000       Uiso       1.00
       H48          H  0.6762410  0.4486860  0.3382180    0.00000       Uiso       1.00
       H49          H  0.2761920  0.5836390  0.3211460    0.00000       Uiso       1.00
       H50          H  0.5557480  0.2233810  0.6442370    0.00000       Uiso       1.00
       H51          H  0.4158930  0.6895020  0.1480570    0.00000       Uiso       1.00
       H52          H  0.6756900  0.2449840  0.0947930    0.00000       Uiso       1.00
       H53          H  0.2778160  0.6854880  0.8076250    0.00000       Uiso       1.00
       H54          H  0.5513960  0.3237660  0.6610120    0.00000       Uiso       1.00
       H55          H  0.4163730  0.7238390  0.6801480    0.00000       Uiso       1.00
       H56          H  0.7766730  0.4442430  0.3531500    0.00000       Uiso       1.00
       H57          H  0.3105550  0.5840860  0.8541000    0.00000       Uiso       1.00
       H58          H  0.8338530  0.3628690  0.9551450    0.00000       Uiso       1.00
       H59          H  0.3539710  0.8024340  0.1290160    0.00000       Uiso       1.00
       H60          H  0.6379460  0.4877700  0.3645870    0.00000       Uiso       1.00
       H61          H  0.1959150  0.5429830  0.3862320    0.00000       Uiso       1.00
       H62          H  0.5169050  0.1452160  0.5825760    0.00000       Uiso       1.00
       H63          H  0.4549150  0.6509020  0.1436880    0.00000       Uiso       1.00
       H64          H  0.6370180  0.1662080  0.0438310    0.00000       Uiso       1.00
       H65          H  0.1975780  0.6459300  0.8706110    0.00000       Uiso       1.00
       H66          H  0.5123050  0.3620730  0.6358590    0.00000       Uiso       1.00
       H67          H  0.4569790  0.8041250  0.6146100    0.00000       Uiso       1.00
       H68          H  0.8548500  0.4830500  0.4149810    0.00000       Uiso       1.00
       H69          H  0.3491500  0.5450560  0.8591660    0.00000       Uiso       1.00
       C70          C  0.4292910  0.5707080  0.5015600    0.00000       Uiso       1.00
       C71          C  0.4763520  0.5236600  0.5014160    0.00000       Uiso       1.00
       C72          C  0.5470500  0.4529980  0.5006510    0.00000       Uiso       1.00
       C73          C  0.4996140  0.5004130  0.5012120    0.00000       Uiso       1.00
       C74          C  0.4326900  0.8592950  0.3388680    0.00000       Uiso       1.00
       C75          C  0.4804430  0.9562200  0.3017930    0.00000       Uiso       1.00
       C76          C  0.5507960  0.1003490  0.2994770    0.00000       Uiso       1.00
       C77          C  0.5041520  0.0040510  0.2929310    0.00000       Uiso       1.00
       C78          C  0.1407400  0.5672210  0.6609320    0.00000       Uiso       1.00
       C79          C  0.0438260  0.5194520  0.6974570    0.00000       Uiso       1.00
       C80          C  0.8997060  0.4491090  0.6991410    0.00000       Uiso       1.00
       C81          C  0.9959970  0.4957410  0.7061270    0.00000       Uiso       1.00
       C82          C  0.4757500  0.5932519  0.5423700    0.00000       Uiso       1.00
       C83          C  0.4989350  0.5701030  0.5420250    0.00000       Uiso       1.00
       H84          H  0.4930540  0.6267350  0.5755590    0.00000       Uiso       1.00
       H85          H  0.5324510  0.5873960  0.5745790    0.00000       Uiso       1.00
       C86          C  0.5053720  0.4358560  0.7156560    0.00000       Uiso       1.00
       C87          C  0.4818440  0.4586620  0.7134560    0.00000       Uiso       1.00
       H88          H  0.4916430  0.4066210  0.8828800    0.00000       Uiso       1.00
       H89          H  0.4519050  0.4448660  0.8731970    0.00000       Uiso       1.00
       C90          C  0.4105190  0.8804880  0.4651640    0.00000       Uiso       1.00
       C91          C  0.4340910  0.9281190  0.4486150    0.00000       Uiso       1.00
       H92          H  0.3771150  0.8613220  0.5750150    0.00000       Uiso       1.00
       H93          H  0.4171120  0.9420650  0.5496750    0.00000       Uiso       1.00
       C94          C  0.5710340  0.0755160  0.3893800    0.00000       Uiso       1.00
       C95          C  0.5481080  0.0282280  0.3864710    0.00000       Uiso       1.00
       H96          H  0.6024650  0.0915680  0.4637600    0.00000       Uiso       1.00
       H97          H  0.5636440  0.0114590  0.4589040    0.00000       Uiso       1.00
       C98          C  0.1128640  0.5210720  0.8113030    0.00000       Uiso       1.00
       C99          C  0.0651640  0.4976280  0.8300070    0.00000       Uiso       1.00
      H100          H  0.1271260  0.5042220  0.9097500    0.00000       Uiso       1.00
      H101          H  0.0460680  0.4643530  0.9428830    0.00000       Uiso       1.00
      C102          C  0.9237540  0.4927880  0.7964880    0.00000       Uiso       1.00
      C103          C  0.9709670  0.5155440  0.8022120    0.00000       Uiso       1.00
      H104          H  0.9070210  0.5084570  0.8651730    0.00000       Uiso       1.00
      H105          H  0.9869570  0.5468510  0.8782510    0.00000       Uiso       1.00
      C106          C  0.4067390  0.5242580  0.4607720    0.00000       Uiso       1.00
      C107          C  0.4298950  0.5010800  0.4609580    0.00000       Uiso       1.00
      H108          H  0.3732460  0.5069580  0.4276520    0.00000       Uiso       1.00
      H109          H  0.4125970  0.4675730  0.4283450    0.00000       Uiso       1.00
      C110          C  0.5641290  0.4947360  0.2859720    0.00000       Uiso       1.00
      C111          C  0.5413130  0.5182520  0.2887240    0.00000       Uiso       1.00
      H112          H  0.5933190  0.5085170  0.1185650    0.00000       Uiso       1.00
      H113          H  0.5550630  0.5482350  0.1291910    0.00000       Uiso       1.00
      C114          C  0.1195330  0.5893970  0.5340440    0.00000       Uiso       1.00
      C115          C  0.0719080  0.5658160  0.5503290    0.00000       Uiso       1.00
      H116          H  0.1386860  0.6228110  0.4239700    0.00000       Uiso       1.00
      H117          H  0.0579500  0.5828010  0.4488730    0.00000       Uiso       1.00
      C118          C  0.9245200  0.4288700  0.6096710    0.00000       Uiso       1.00
      C119          C  0.9718050  0.4517920  0.6127930    0.00000       Uiso       1.00
      H120          H  0.9084550  0.3974450  0.5354460    0.00000       Uiso       1.00
      H121          H  0.9885630  0.4362590  0.5406600    0.00000       Uiso       1.00
      C122          C  0.4788230  0.8871900  0.1887420    0.00000       Uiso       1.00
      C123          C  0.5022580  0.9348950  0.1697680    0.00000       Uiso       1.00
      H124          H  0.4956690  0.8729390  0.0906850    0.00000       Uiso       1.00
      H125          H  0.5355220  0.9540050  0.0570930    0.00000       Uiso       1.00
      C126          C  0.5071080  0.0763150  0.2019680    0.00000       Uiso       1.00
      C127          C  0.4843460  0.0291000  0.1964530    0.00000       Uiso       1.00
      H128          H  0.4914350  0.0930610  0.1330050    0.00000       Uiso       1.00
      H129          H  0.4530330  0.0131220  0.1202750    0.00000       Uiso       1.00
      N130          N  0.3351570  0.6648440  0.5006260    0.00000       Uiso       1.00
