data_Ph-An-COF
_audit_creation_date              0000-00-00
_audit_creation_method            'LanYouShi'
_symmetry_space_group_name_H-M    'P1'
_cell_length_a                    29.1443996
_cell_length_b                    29.1443996
_cell_length_c                    3.4000001
_cell_angle_alpha                 90.0000000
_cell_angle_beta                  90.0000000
_cell_angle_gamma                 120.0000000
loop_
_atom_site_label
_atom_site_type_symbol
_atom_site_fract_x
_atom_site_fract_y
_atom_site_fract_z
_atom_site_U_iso_or_equiv
_atom_site_adp_type
_atom_site_occupancy
        C1          C  0.4081330  0.4073260  1.4705951    0.00000       Uiso       1.00
        C2          C  0.4540670  0.4531660  1.4705909    0.00000       Uiso       1.00
        C3          C  0.5918680  0.4991930  1.4705951    0.00000       Uiso       1.00
        C4          C  0.5459340  0.4991000  1.4705909    0.00000       Uiso       1.00
        H5          H  0.4063790  0.3693240  1.4705440    0.00000       Uiso       1.00
        H6          H  0.5936290  0.4629500  1.4705430    0.00000       Uiso       1.00
        O7          O  0.6860330  0.5522420  1.4705940    0.00000       Uiso       1.00
        C8          C  0.3633480  0.4088010  1.4705909    0.00000       Uiso       1.00
        O9          O  0.3139690  0.3662100  1.4705940    0.00000       Uiso       1.00
       C10          C  0.6366540  0.5454540  1.4705909    0.00000       Uiso       1.00
       C11          C  0.5000010  0.4532590  1.4705951    0.00000       Uiso       1.00
       H12          H  0.4999870  0.4159400  1.4704980    0.00000       Uiso       1.00
       O13          O  0.3139690  0.4477590  1.4705799    0.00000       Uiso       1.00
       C14          C  0.6366540  0.5912010  1.4705830    0.00000       Uiso       1.00
       O15          O  0.6860330  0.6337910  1.4705799    0.00000       Uiso       1.00
       C16          C  0.3633480  0.4545480  1.4705830    0.00000       Uiso       1.00
       B17          B  0.2841120  0.3920560  1.4705870    0.00000       Uiso       1.00
       C18          C  0.5000010  0.5467420  1.4705790    0.00000       Uiso       1.00
       H19          H  0.4999880  0.5840330  1.4708140    0.00000       Uiso       1.00
       C20          C  0.5918680  0.5926760  1.4705790    0.00000       Uiso       1.00
       C21          C  0.5459340  0.5468360  1.4705830    0.00000       Uiso       1.00
       C22          C  0.4081330  0.5008080  1.4705790    0.00000       Uiso       1.00
       C23          C  0.4540670  0.5009020  1.4705830    0.00000       Uiso       1.00
       B24          B  0.7158900  0.6079450  1.4705870    0.00000       Uiso       1.00
       H25          H  0.5936200  0.6306880  1.4707450    0.00000       Uiso       1.00
       H26          H  0.4063840  0.5370520  1.4706780    0.00000       Uiso       1.00
       C27          C  0.9991950  0.0918680  1.4705271    0.00000       Uiso       1.00
       C28          C  0.9991010  0.0459340  1.4705350    0.00000       Uiso       1.00
       C29          C  0.9073260  0.9081340  1.4705510    0.00000       Uiso       1.00
       C30          C  0.9531670  0.9540680  1.4705470    0.00000       Uiso       1.00
       H31          H  0.9629459  0.0936210  1.4704649    0.00000       Uiso       1.00
       H32          H  0.8693220  0.9063740  1.4704890    0.00000       Uiso       1.00
       O33          O  0.8662110  0.8139700  1.4705641    0.00000       Uiso       1.00
       C34          C  0.0454530  0.1366530  1.4705230    0.00000       Uiso       1.00
       O35          O  0.0522420  0.1860320  1.4705150    0.00000       Uiso       1.00
       C36          C  0.9088010  0.8633479  1.4705590    0.00000       Uiso       1.00
       C37          C  0.9532610  0.0000000  1.4705390    0.00000       Uiso       1.00
       H38          H  0.9159550  0.0000140  1.4704320    0.00000       Uiso       1.00
       O39          O  0.1337910  0.1860320  1.4705220    0.00000       Uiso       1.00
       C40          C  0.9545480  0.8633479  1.4705631    0.00000       Uiso       1.00
       O41          O  0.9477600  0.8139700  1.4705710    0.00000       Uiso       1.00
       C42          C  0.0912000  0.1366530  1.4705271    0.00000       Uiso       1.00
       B43          B  0.1079450  0.2158890  1.4705141    0.00000       Uiso       1.00
       C44          C  0.0467420  0.0000000  1.4705470    0.00000       Uiso       1.00
       H45          H  0.0840450  0.0000130  1.4707910    0.00000       Uiso       1.00
       C46          C  0.0008070  0.9081340  1.4705590    0.00000       Uiso       1.00
       C47          C  0.0009010  0.9540680  1.4705510    0.00000       Uiso       1.00
       C48          C  0.0926750  0.0918680  1.4705350    0.00000       Uiso       1.00
       C49          C  0.0468350  0.0459340  1.4705390    0.00000       Uiso       1.00
       B50          B  0.8920570  0.7841130  1.4705710    0.00000       Uiso       1.00
       H51          H  0.0370680  0.9063820  1.4707348    0.00000       Uiso       1.00
       H52          H  0.1306680  0.0936170  1.4706430    0.00000       Uiso       1.00
       C53          C  0.0926750  0.5008080  1.4706380    0.00000       Uiso       1.00
       C54          C  0.0468350  0.5009020  1.4706339    0.00000       Uiso       1.00
       C55          C  0.0008070  0.5926760  1.4706140    0.00000       Uiso       1.00
       C56          C  0.0009010  0.5468360  1.4706219    0.00000       Uiso       1.00
       H57          H  0.1306770  0.5370570  1.4705770    0.00000       Uiso       1.00
       H58          H  0.0370510  0.6306800  1.4705510    0.00000       Uiso       1.00
       O59          O  0.9477600  0.6337910  1.4706020    0.00000       Uiso       1.00
       C60          C  0.0912000  0.4545480  1.4706460    0.00000       Uiso       1.00
       O61          O  0.1337900  0.4477590  1.4706510    0.00000       Uiso       1.00
       C62          C  0.9545480  0.5912010  1.4706100    0.00000       Uiso       1.00
       C63          C  0.0467410  0.5467420  1.4706261    0.00000       Uiso       1.00
       H64          H  0.0840600  0.5840480  1.4705189    0.00000       Uiso       1.00
       O65          O  0.0522410  0.3662100  1.4706579    0.00000       Uiso       1.00
       C66          C  0.9088010  0.5454540  1.4706140    0.00000       Uiso       1.00
       O67          O  0.8662110  0.5522420  1.4706089    0.00000       Uiso       1.00
       C68          C  0.0454530  0.4088010  1.4706500    0.00000       Uiso       1.00
       B69          B  0.1079440  0.3920560  1.4706579    0.00000       Uiso       1.00
       C70          C  0.9532600  0.4532590  1.4706339    0.00000       Uiso       1.00
       H71          H  0.9159690  0.4159560  1.4708790    0.00000       Uiso       1.00
       C72          C  0.9073260  0.4991930  1.4706219    0.00000       Uiso       1.00
       C73          C  0.9531670  0.4991000  1.4706261    0.00000       Uiso       1.00
       C74          C  0.9991940  0.4073260  1.4706460    0.00000       Uiso       1.00
       C75          C  0.9991010  0.4531660  1.4706380    0.00000       Uiso       1.00
       B76          B  0.8920570  0.6079450  1.4706020    0.00000       Uiso       1.00
       H77          H  0.8693150  0.4629330  1.4707980    0.00000       Uiso       1.00
       H78          H  0.9629501  0.3693330  1.4707550    0.00000       Uiso       1.00
       C79          C  0.7777360  0.6388690  1.4705870    0.00000       Uiso       1.00
       C80          C  0.8611340  0.6388690  1.4705940    0.00000       Uiso       1.00
       C81          C  0.8611340  0.7222660  1.4705790    0.00000       Uiso       1.00
       C82          C  0.8056040  0.6112070  1.4705940    0.00000       Uiso       1.00
       C83          C  0.8887950  0.6943979  1.4705870    0.00000       Uiso       1.00
       C84          C  0.8056040  0.6943979  1.4705790    0.00000       Uiso       1.00
       H85          H  0.7841210  0.7158820  1.4705740    0.00000       Uiso       1.00
       H86          H  0.7841210  0.5682400  1.4706000    0.00000       Uiso       1.00
       H87          H  0.9317620  0.7158820  1.4705870    0.00000       Uiso       1.00
       C88          C  0.2222650  0.3611330  1.4705870    0.00000       Uiso       1.00
       C89          C  0.1388680  0.2777350  1.4705951    0.00000       Uiso       1.00
       C90          C  0.1388680  0.3611330  1.4705799    0.00000       Uiso       1.00
       C91          C  0.1943970  0.3056040  1.4705951    0.00000       Uiso       1.00
       C92          C  0.1112060  0.3056040  1.4705870    0.00000       Uiso       1.00
       C93          C  0.1943970  0.3887940  1.4705799    0.00000       Uiso       1.00
       H94          H  0.2158810  0.4317620  1.4705750    0.00000       Uiso       1.00
       H95          H  0.2158810  0.2841200  1.4706000    0.00000       Uiso       1.00
       H96          H  0.0682390  0.2841200  1.4705880    0.00000       Uiso       1.00
