data_PI-2-COF
_audit_creation_date              0000-00-00
_audit_creation_method            'LanYouShi'
_symmetry_space_group_name_H-M    'P1'
_cell_length_a                    30.1401997
_cell_length_b                    30.1401997
_cell_length_c                    3.4000001
_cell_angle_alpha                 90.0000000
_cell_angle_beta                  90.0000000
_cell_angle_gamma                 60.0000000
loop_
_atom_site_label
_atom_site_type_symbol
_atom_site_fract_x
_atom_site_fract_y
_atom_site_fract_z
_atom_site_U_iso_or_equiv
_atom_site_adp_type
_atom_site_occupancy
        N1          N  0.3837550  0.4318060  1.4705880    0.00000       Uiso       1.00
        C2          C  0.3977910  0.3820780  1.4705880    0.00000       Uiso       1.00
        C3          C  0.4169830  0.4502330  1.4705880    0.00000       Uiso       1.00
        C4          C  0.4695800  0.4178100  1.4705880    0.00000       Uiso       1.00
        C5          C  0.5012901  0.4377360  1.4705880    0.00000       Uiso       1.00
        C6          C  0.4824100  0.4902670  1.4705880    0.00000       Uiso       1.00
        C7          C  0.4293900  0.5222370  1.4705880    0.00000       Uiso       1.00
        C8          C  0.3970970  0.5026250  1.4705880    0.00000       Uiso       1.00
        H9          H  0.4380400  0.3521740  1.4705880    0.00000       Uiso       1.00
       H10          H  0.4860390  0.3761150  1.4705880    0.00000       Uiso       1.00
       H11          H  0.3551040  0.5278760  1.4705880    0.00000       Uiso       1.00
       H12          H  0.5428050  0.4109920  1.4705880    0.00000       Uiso       1.00
       H13          H  0.4126320  0.5639470  1.4705880    0.00000       Uiso       1.00
       N14          N  0.6162460  0.5681950  1.4705880    0.00000       Uiso       1.00
       C15          C  0.6022100  0.6179230  1.4705880    0.00000       Uiso       1.00
       C16          C  0.5830180  0.5497680  1.4705880    0.00000       Uiso       1.00
       C17          C  0.5304210  0.5821910  1.4705880    0.00000       Uiso       1.00
       C18          C  0.4987110  0.5622650  1.4705880    0.00000       Uiso       1.00
       C19          C  0.5175910  0.5097340  1.4705880    0.00000       Uiso       1.00
       C20          C  0.5706110  0.4777640  1.4705880    0.00000       Uiso       1.00
       C21          C  0.6029030  0.4973760  1.4705880    0.00000       Uiso       1.00
       H22          H  0.5619610  0.6478270  1.4705880    0.00000       Uiso       1.00
       H23          H  0.5139620  0.6238860  1.4705880    0.00000       Uiso       1.00
       H24          H  0.6448979  0.4721250  1.4705880    0.00000       Uiso       1.00
       H25          H  0.4571960  0.5890090  1.4705880    0.00000       Uiso       1.00
       H26          H  0.5873690  0.4360540  1.4705880    0.00000       Uiso       1.00
       N27          N  0.1844410  0.3837550  1.4705880    0.00000       Uiso       1.00
       C28          C  0.2201320  0.3977910  1.4705880    0.00000       Uiso       1.00
       C29          C  0.1327850  0.4169830  1.4705880    0.00000       Uiso       1.00
       C30          C  0.1126110  0.4695800  1.4705880    0.00000       Uiso       1.00
       C31          C  0.0609750  0.5012900  1.4705880    0.00000       Uiso       1.00
       C32          C  0.0273230  0.4824100  1.4705880    0.00000       Uiso       1.00
       C33          C  0.0483740  0.4293900  1.4705880    0.00000       Uiso       1.00
       C34          C  0.1002780  0.3970970  1.4705880    0.00000       Uiso       1.00
       H35          H  0.2097870  0.4380400  1.4705880    0.00000       Uiso       1.00
       H36          H  0.1378470  0.4860390  1.4705880    0.00000       Uiso       1.00
       H37          H  0.1170210  0.3551040  1.4705880    0.00000       Uiso       1.00
       H38          H  0.0462040  0.5428050  1.4705880    0.00000       Uiso       1.00
       H39          H  0.0234220  0.4126320  1.4705880    0.00000       Uiso       1.00
       N40          N  0.8155600  0.6162460  1.4705880    0.00000       Uiso       1.00
       C41          C  0.7798690  0.6022100  1.4705880    0.00000       Uiso       1.00
       C42          C  0.8672159  0.5830180  1.4705880    0.00000       Uiso       1.00
       C43          C  0.8873900  0.5304210  1.4705880    0.00000       Uiso       1.00
       C44          C  0.9390259  0.4987110  1.4705880    0.00000       Uiso       1.00
       C45          C  0.9726779  0.5175910  1.4705880    0.00000       Uiso       1.00
       C46          C  0.9516270  0.5706110  1.4705880    0.00000       Uiso       1.00
       C47          C  0.8997231  0.6029040  1.4705880    0.00000       Uiso       1.00
       H48          H  0.7902150  0.5619610  1.4705880    0.00000       Uiso       1.00
       H49          H  0.8621541  0.5139620  1.4705880    0.00000       Uiso       1.00
       H50          H  0.8829800  0.6448970  1.4705880    0.00000       Uiso       1.00
       H51          H  0.9537969  0.4571960  1.4705880    0.00000       Uiso       1.00
       H52          H  0.9765790  0.5873690  1.4705880    0.00000       Uiso       1.00
       N53          N  0.4318060  0.1844410  1.4705880    0.00000       Uiso       1.00
       C54          C  0.3820780  0.2201320  1.4705880    0.00000       Uiso       1.00
       C55          C  0.4502330  0.1327850  1.4705880    0.00000       Uiso       1.00
       C56          C  0.4178100  0.1126110  1.4705880    0.00000       Uiso       1.00
       C57          C  0.4377360  0.0609750  1.4705880    0.00000       Uiso       1.00
       C58          C  0.4902670  0.0273230  1.4705880    0.00000       Uiso       1.00
       C59          C  0.5222370  0.0483740  1.4705880    0.00000       Uiso       1.00
       C60          C  0.5026250  0.1002780  1.4705880    0.00000       Uiso       1.00
       H61          H  0.3521740  0.2097860  1.4705880    0.00000       Uiso       1.00
       H62          H  0.3761150  0.1378470  1.4705880    0.00000       Uiso       1.00
       H63          H  0.5278760  0.1170210  1.4705880    0.00000       Uiso       1.00
       H64          H  0.4109920  0.0462040  1.4705880    0.00000       Uiso       1.00
       H65          H  0.5639470  0.0234220  1.4705880    0.00000       Uiso       1.00
       N66          N  0.5681950  0.8155599  1.4705880    0.00000       Uiso       1.00
       C67          C  0.6179230  0.7798691  1.4705880    0.00000       Uiso       1.00
       C68          C  0.5497680  0.8672160  1.4705880    0.00000       Uiso       1.00
       C69          C  0.5821910  0.8873900  1.4705880    0.00000       Uiso       1.00
       C70          C  0.5622650  0.9390260  1.4705880    0.00000       Uiso       1.00
       C71          C  0.5097340  0.9726780  1.4705880    0.00000       Uiso       1.00
       C72          C  0.4777640  0.9516270  1.4705880    0.00000       Uiso       1.00
       C73          C  0.4973760  0.8997230  1.4705880    0.00000       Uiso       1.00
       H74          H  0.6478270  0.7902140  1.4705880    0.00000       Uiso       1.00
       H75          H  0.6238860  0.8621539  1.4705880    0.00000       Uiso       1.00
       H76          H  0.4721250  0.8829800  1.4705880    0.00000       Uiso       1.00
       H77          H  0.5890089  0.9537970  1.4705880    0.00000       Uiso       1.00
       H78          H  0.4360540  0.9765790  1.4705880    0.00000       Uiso       1.00
       C79          C  0.6361530  0.6435919  1.4705880    0.00000       Uiso       1.00
       C80          C  0.6435920  0.7202570  1.4705880    0.00000       Uiso       1.00
       C81          C  0.7202570  0.6361530  1.4705880    0.00000       Uiso       1.00
       C82          C  0.6132110  0.6971060  1.4705880    0.00000       Uiso       1.00
       C83          C  0.6971060  0.6896860  1.4705880    0.00000       Uiso       1.00
       C84          C  0.6896861  0.6132110  1.4705880    0.00000       Uiso       1.00
       H85          H  0.7075190  0.5717960  1.4705880    0.00000       Uiso       1.00
       H86          H  0.5717960  0.7206870  1.4705880    0.00000       Uiso       1.00
       H87          H  0.7206869  0.7075190  1.4705880    0.00000       Uiso       1.00
       C88          C  0.3638480  0.3564090  1.4705880    0.00000       Uiso       1.00
       C89          C  0.3564090  0.2797440  1.4705880    0.00000       Uiso       1.00
       C90          C  0.2797440  0.3638480  1.4705880    0.00000       Uiso       1.00
       C91          C  0.3867900  0.3028950  1.4705880    0.00000       Uiso       1.00
       C92          C  0.3028950  0.3103150  1.4705880    0.00000       Uiso       1.00
       C93          C  0.3103150  0.3867900  1.4705880    0.00000       Uiso       1.00
       H94          H  0.2924820  0.4282050  1.4705880    0.00000       Uiso       1.00
       H95          H  0.4282050  0.2793140  1.4705880    0.00000       Uiso       1.00
       H96          H  0.2793140  0.2924820  1.4705880    0.00000       Uiso       1.00
