data_PI-3_COF
_audit_creation_date              0000-00-00
_audit_creation_method            'LanYouShi'
_symmetry_space_group_name_H-M    'P1'
_cell_length_a                    37.2378998
_cell_length_b                    37.2378998
_cell_length_c                    3.5263000
_cell_angle_alpha                 90.0000000
_cell_angle_beta                  90.0000000
_cell_angle_gamma                 120.0000000
loop_
_atom_site_label
_atom_site_type_symbol
_atom_site_fract_x
_atom_site_fract_y
_atom_site_fract_z
_atom_site_U_iso_or_equiv
_atom_site_adp_type
_atom_site_occupancy
        N1          N  0.8840110  0.4482390  0.4999980    0.00000       Uiso       1.00
        N2          N  0.5517610  0.4357720  0.4999980    0.00000       Uiso       1.00
        N3          N  0.5642280  0.1159890  0.4999980    0.00000       Uiso       1.00
        N4          N  0.1159890  0.5517610  0.4999980    0.00000       Uiso       1.00
        N5          N  0.4482390  0.5642280  0.4999980    0.00000       Uiso       1.00
        N6          N  0.4357720  0.8840110  0.4999980    0.00000       Uiso       1.00
        C7          C  0.9145430  0.4385620  0.4999980    0.00000       Uiso       1.00
        H8          H  0.9069000  0.4081050  0.4999980    0.00000       Uiso       1.00
        C9          C  0.5614370  0.4759800  0.4999980    0.00000       Uiso       1.00
       H10          H  0.5918940  0.4987940  0.4999980    0.00000       Uiso       1.00
       C11          C  0.5240190  0.0854570  0.4999980    0.00000       Uiso       1.00
       H12          H  0.5012060  0.0931000  0.4999980    0.00000       Uiso       1.00
       C13          C  0.0854570  0.5614370  0.4999980    0.00000       Uiso       1.00
       H14          H  0.0931000  0.5918940  0.4999980    0.00000       Uiso       1.00
       C15          C  0.4385620  0.5240190  0.4999980    0.00000       Uiso       1.00
       H16          H  0.4081050  0.5012060  0.4999980    0.00000       Uiso       1.00
       C17          C  0.4759800  0.9145430  0.4999980    0.00000       Uiso       1.00
       H18          H  0.4987940  0.9069000  0.4999980    0.00000       Uiso       1.00
       C19          C  0.9568310  0.4693190  0.4999980    0.00000       Uiso       1.00
       C20          C  0.5306810  0.4875120  0.4999980    0.00000       Uiso       1.00
       C21          C  0.5124880  0.0431690  0.4999980    0.00000       Uiso       1.00
       C22          C  0.0431690  0.5306810  0.4999980    0.00000       Uiso       1.00
       C23          C  0.4693190  0.5124880  0.4999980    0.00000       Uiso       1.00
       C24          C  0.4875120  0.9568310  0.4999980    0.00000       Uiso       1.00
       C25          C  0.9876610  0.4577130  0.4999980    0.00000       Uiso       1.00
       C26          C  0.5422870  0.5299490  0.4999980    0.00000       Uiso       1.00
       C27          C  0.4700510  0.0123380  0.4999980    0.00000       Uiso       1.00
       C28          C  0.0123380  0.5422870  0.4999980    0.00000       Uiso       1.00
       C29          C  0.4577130  0.4700510  0.4999980    0.00000       Uiso       1.00
       C30          C  0.5299490  0.9876610  0.4999980    0.00000       Uiso       1.00
       C31          C  0.0300650  0.4878630  0.4999980    0.00000       Uiso       1.00
       C32          C  0.5121370  0.5422020  0.4999980    0.00000       Uiso       1.00
       C33          C  0.4577980  0.9699350  0.4999980    0.00000       Uiso       1.00
       C34          C  0.9699350  0.5121370  0.4999980    0.00000       Uiso       1.00
       C35          C  0.4878630  0.4577980  0.4999980    0.00000       Uiso       1.00
       C36          C  0.5422020  0.0300650  0.4999980    0.00000       Uiso       1.00
       H37          H  0.9795530  0.4270830  0.4999980    0.00000       Uiso       1.00
       H38          H  0.5729170  0.5524700  0.4999980    0.00000       Uiso       1.00
       H39          H  0.4475300  0.0204460  0.4999980    0.00000       Uiso       1.00
       H40          H  0.0204460  0.5729170  0.4999980    0.00000       Uiso       1.00
       H41          H  0.4270830  0.4475300  0.4999980    0.00000       Uiso       1.00
       H42          H  0.5524700  0.9795530  0.4999980    0.00000       Uiso       1.00
       H43          H  0.0514090  0.4782090  0.4999980    0.00000       Uiso       1.00
       H44          H  0.5217900  0.5732000  0.4999980    0.00000       Uiso       1.00
       H45          H  0.4268000  0.9485910  0.4999980    0.00000       Uiso       1.00
       H46          H  0.9485911  0.5217900  0.4999980    0.00000       Uiso       1.00
       H47          H  0.4782090  0.4268000  0.4999980    0.00000       Uiso       1.00
       H48          H  0.5732000  0.0514090  0.4999980    0.00000       Uiso       1.00
       C49          C  0.1794730  0.6198470  0.4999980    0.00000       Uiso       1.00
       C50          C  0.2231280  0.6423400  0.4999980    0.00000       Uiso       1.00
       C51          C  0.3801530  0.5596260  0.4999980    0.00000       Uiso       1.00
       C52          C  0.3576600  0.5807880  0.4999980    0.00000       Uiso       1.00
       C53          C  0.4403740  0.8205260  0.4999980    0.00000       Uiso       1.00
       C54          C  0.4192120  0.7768720  0.4999980    0.00000       Uiso       1.00
       C55          C  0.8205260  0.3801530  0.4999980    0.00000       Uiso       1.00
       C56          C  0.7768720  0.3576600  0.4999980    0.00000       Uiso       1.00
       C57          C  0.6198470  0.4403740  0.4999980    0.00000       Uiso       1.00
       C58          C  0.6423400  0.4192120  0.4999980    0.00000       Uiso       1.00
       C59          C  0.5596260  0.1794730  0.4999980    0.00000       Uiso       1.00
       C60          C  0.5807880  0.2231280  0.4999980    0.00000       Uiso       1.00
       H61          H  0.1638150  0.6358020  0.4999980    0.00000       Uiso       1.00
       H62          H  0.2375860  0.6740320  0.4999980    0.00000       Uiso       1.00
       H63          H  0.3641970  0.5280130  0.4999980    0.00000       Uiso       1.00
       H64          H  0.3259670  0.5635530  0.4999980    0.00000       Uiso       1.00
       H65          H  0.4719870  0.8361850  0.4999980    0.00000       Uiso       1.00
       H66          H  0.4364470  0.7624140  0.4999980    0.00000       Uiso       1.00
       H67          H  0.8361850  0.3641970  0.4999980    0.00000       Uiso       1.00
       H68          H  0.7624140  0.3259670  0.4999980    0.00000       Uiso       1.00
       H69          H  0.6358020  0.4719870  0.4999980    0.00000       Uiso       1.00
       H70          H  0.6740320  0.4364470  0.4999980    0.00000       Uiso       1.00
       H71          H  0.5280130  0.1638150  0.4999980    0.00000       Uiso       1.00
       H72          H  0.5635530  0.2375860  0.4999980    0.00000       Uiso       1.00
       C73          C  0.3746340  0.8191300  0.4999980    0.00000       Uiso       1.00
       C74          C  0.3534630  0.7754840  0.4999980    0.00000       Uiso       1.00
       C75          C  0.1808700  0.5555040  0.4999980    0.00000       Uiso       1.00
       C76          C  0.2245160  0.5779790  0.4999980    0.00000       Uiso       1.00
       C77          C  0.4444960  0.6253650  0.4999980    0.00000       Uiso       1.00
       C78          C  0.4220210  0.6465370  0.4999980    0.00000       Uiso       1.00
       C79          C  0.6253650  0.1808700  0.4999980    0.00000       Uiso       1.00
       C80          C  0.6465370  0.2245160  0.4999980    0.00000       Uiso       1.00
       C81          C  0.8191300  0.4444960  0.4999980    0.00000       Uiso       1.00
       C82          C  0.7754840  0.4220210  0.4999980    0.00000       Uiso       1.00
       C83          C  0.5555040  0.3746340  0.4999980    0.00000       Uiso       1.00
       C84          C  0.5779790  0.3534630  0.4999980    0.00000       Uiso       1.00
       H85          H  0.3579850  0.8341860  0.4999980    0.00000       Uiso       1.00
       H86          H  0.3217370  0.7600390  0.4999980    0.00000       Uiso       1.00
       H87          H  0.1658140  0.5237980  0.4999980    0.00000       Uiso       1.00
       H88          H  0.2399610  0.5616980  0.4999980    0.00000       Uiso       1.00
       H89          H  0.4762020  0.6420150  0.4999980    0.00000       Uiso       1.00
       H90          H  0.4383020  0.6782630  0.4999980    0.00000       Uiso       1.00
       H91          H  0.6420150  0.1658140  0.4999980    0.00000       Uiso       1.00
       H92          H  0.6782630  0.2399610  0.4999980    0.00000       Uiso       1.00
       H93          H  0.8341860  0.4762020  0.4999980    0.00000       Uiso       1.00
       H94          H  0.7600390  0.4383020  0.4999980    0.00000       Uiso       1.00
       H95          H  0.5237980  0.3579850  0.4999980    0.00000       Uiso       1.00
       H96          H  0.5616980  0.3217370  0.4999980    0.00000       Uiso       1.00
       C97          C  0.3539840  0.7093370  0.4999980    0.00000       Uiso       1.00
       C98          C  0.2906630  0.6446470  0.4999980    0.00000       Uiso       1.00
       C99          C  0.3553530  0.6460160  0.4999980    0.00000       Uiso       1.00
      C100          C  0.4182530  0.8421930  0.4999980    0.00000       Uiso       1.00
      C101          C  0.1578070  0.5760610  0.4999980    0.00000       Uiso       1.00
      C102          C  0.4239390  0.5817460  0.4999980    0.00000       Uiso       1.00
      C103          C  0.3752520  0.7532780  0.4999980    0.00000       Uiso       1.00
      C104          C  0.2467220  0.6219730  0.4999980    0.00000       Uiso       1.00
      C105          C  0.3780260  0.6247480  0.4999980    0.00000       Uiso       1.00
      N106          N  0.3747140  0.6880210  0.4999980    0.00000       Uiso       1.00
      N107          N  0.3119790  0.6866930  0.4999980    0.00000       Uiso       1.00
      N108          N  0.3133060  0.6252860  0.4999980    0.00000       Uiso       1.00
      C109          C  0.6460160  0.2906630  0.4999980    0.00000       Uiso       1.00
      C110          C  0.7093370  0.3553530  0.4999980    0.00000       Uiso       1.00
      C111          C  0.6446470  0.3539840  0.4999980    0.00000       Uiso       1.00
      C112          C  0.5817460  0.1578070  0.4999980    0.00000       Uiso       1.00
      C113          C  0.8421930  0.4239390  0.4999980    0.00000       Uiso       1.00
      C114          C  0.5760600  0.4182530  0.4999980    0.00000       Uiso       1.00
      C115          C  0.6247480  0.2467220  0.4999980    0.00000       Uiso       1.00
      C116          C  0.7532780  0.3780260  0.4999980    0.00000       Uiso       1.00
      C117          C  0.6219730  0.3752520  0.4999980    0.00000       Uiso       1.00
      N118          N  0.6252860  0.3119790  0.4999980    0.00000       Uiso       1.00
      N119          N  0.6880210  0.3133060  0.4999980    0.00000       Uiso       1.00
      N120          N  0.6866930  0.3747140  0.4999980    0.00000       Uiso       1.00
