data_BBO-COF-1
_audit_creation_date              0000-00-00
_audit_creation_method            'LanYouShi'
_symmetry_space_group_name_H-M    'P1'
_cell_length_a                    21.0470009
_cell_length_b                    21.0470009
_cell_length_c                    3.5613999
_cell_angle_alpha                 90.0000000
_cell_angle_beta                  90.0000000
_cell_angle_gamma                 120.0000000
loop_
_atom_site_label
_atom_site_type_symbol
_atom_site_fract_x
_atom_site_fract_y
_atom_site_fract_z
_atom_site_U_iso_or_equiv
_atom_site_adp_type
_atom_site_occupancy
        C1          C  0.4993540  0.4340330  0.5000040    0.00000       Uiso       1.00
        C2          C  0.4342630  0.4996630  0.5000040    0.00000       Uiso       1.00
        C3          C  0.5659690  0.0653210  0.5000040    0.00000       Uiso       1.00
        C4          C  0.5003390  0.9346020  0.5000040    0.00000       Uiso       1.00
        C5          C  0.9346810  0.5006480  0.5000040    0.00000       Uiso       1.00
        C6          C  0.0654000  0.5657390  0.5000040    0.00000       Uiso       1.00
        C7          C  0.5006480  0.5659690  0.5000040    0.00000       Uiso       1.00
        C8          C  0.5657390  0.5003390  0.5000040    0.00000       Uiso       1.00
        C9          C  0.4340330  0.9346809  0.5000040    0.00000       Uiso       1.00
       C10          C  0.4996630  0.0654000  0.5000040    0.00000       Uiso       1.00
       C11          C  0.0653210  0.4993540  0.5000040    0.00000       Uiso       1.00
       C12          C  0.9346020  0.4342630  0.5000040    0.00000       Uiso       1.00
       C13          C  0.4314350  0.4315850  0.5000040    0.00000       Uiso       1.00
       C14          C  0.5684170  0.9998521  0.5000040    0.00000       Uiso       1.00
       C15          C  0.0001500  0.5685660  0.5000040    0.00000       Uiso       1.00
       C16          C  0.5685670  0.5684170  0.5000040    0.00000       Uiso       1.00
       C17          C  0.4315850  0.0001500  0.5000040    0.00000       Uiso       1.00
       C18          C  0.9998520  0.4314350  0.5000040    0.00000       Uiso       1.00
       N19          N  0.5139540  0.3792900  0.5000040    0.00000       Uiso       1.00
       O20          O  0.3794090  0.5147160  0.5000040    0.00000       Uiso       1.00
       N21          N  0.6207120  0.1346640  0.5000040    0.00000       Uiso       1.00
       O22          O  0.4852860  0.8646950  0.5000040    0.00000       Uiso       1.00
       N23          N  0.8653381  0.4860480  0.5000040    0.00000       Uiso       1.00
       O24          O  0.1353070  0.6205930  0.5000040    0.00000       Uiso       1.00
       N25          N  0.4860480  0.6207120  0.5000040    0.00000       Uiso       1.00
       O26          O  0.6205930  0.4852860  0.5000040    0.00000       Uiso       1.00
       N27          N  0.3792900  0.8653380  0.5000040    0.00000       Uiso       1.00
       O28          O  0.5147160  0.1353070  0.5000040    0.00000       Uiso       1.00
       N29          N  0.1346640  0.5139540  0.5000040    0.00000       Uiso       1.00
       O30          O  0.8646950  0.3794090  0.5000040    0.00000       Uiso       1.00
       C31          C  0.4120020  0.5893300  0.5000040    0.00000       Uiso       1.00
       C32          C  0.4106720  0.8226730  0.5000040    0.00000       Uiso       1.00
       C33          C  0.1773290  0.5880000  0.5000040    0.00000       Uiso       1.00
       C34          C  0.5880000  0.4106720  0.5000040    0.00000       Uiso       1.00
       C35          C  0.5893300  0.1773290  0.5000040    0.00000       Uiso       1.00
       C36          C  0.8226730  0.4120020  0.5000040    0.00000       Uiso       1.00
       H37          H  0.3829790  0.3833810  0.5000040    0.00000       Uiso       1.00
       H38          H  0.6170230  0.6166210  0.5000040    0.00000       Uiso       1.00
       H39          H  0.6166210  0.9996000  0.5000040    0.00000       Uiso       1.00
       H40          H  0.0004020  0.6170230  0.5000040    0.00000       Uiso       1.00
       H41          H  0.3833810  0.0004020  0.5000040    0.00000       Uiso       1.00
       H42          H  0.9996000  0.3829790  0.5000040    0.00000       Uiso       1.00
       C43          C  0.6280390  0.2549180  0.5000040    0.00000       Uiso       1.00
       C44          C  0.7450840  0.3731210  0.5000040    0.00000       Uiso       1.00
       C45          C  0.6268810  0.3719630  0.5000040    0.00000       Uiso       1.00
       C46          C  0.7056560  0.2955080  0.5000040    0.00000       Uiso       1.00
       C47          C  0.7044940  0.4101480  0.5000040    0.00000       Uiso       1.00
       C48          C  0.5898540  0.2943460  0.5000040    0.00000       Uiso       1.00
       C49          C  0.3719630  0.7450840  0.5000040    0.00000       Uiso       1.00
       C50          C  0.2549180  0.6268810  0.5000040    0.00000       Uiso       1.00
       C51          C  0.3731200  0.6280390  0.5000040    0.00000       Uiso       1.00
       C52          C  0.2943460  0.7044940  0.5000040    0.00000       Uiso       1.00
       C53          C  0.2955080  0.5898540  0.5000040    0.00000       Uiso       1.00
       C54          C  0.4101480  0.7056560  0.5000040    0.00000       Uiso       1.00
       H55          H  0.5335860  0.2657710  0.5000040    0.00000       Uiso       1.00
       H56          H  0.7342310  0.2678150  0.5000040    0.00000       Uiso       1.00
       H57          H  0.7321870  0.4664160  0.5000040    0.00000       Uiso       1.00
       H58          H  0.4664160  0.7342310  0.5000040    0.00000       Uiso       1.00
       H59          H  0.2657710  0.7321870  0.5000040    0.00000       Uiso       1.00
       H60          H  0.2678150  0.5335860  0.5000040    0.00000       Uiso       1.00
