data_PPy-COF
_audit_creation_date              0000-00-00
_audit_creation_method            'LanYouShi'
_symmetry_space_group_name_H-M    'P1'
_cell_length_a                    22.1629009
_cell_length_b                    22.1629009
_cell_length_c                    3.4207001
_cell_angle_alpha                 90.0000000
_cell_angle_beta                  90.0000000
_cell_angle_gamma                 120.0000000
loop_
_atom_site_label
_atom_site_type_symbol
_atom_site_fract_x
_atom_site_fract_y
_atom_site_fract_z
_atom_site_U_iso_or_equiv
_atom_site_adp_type
_atom_site_occupancy
        C1          C  0.1452100  0.6258810  0.4999940    0.00000       Uiso       1.00
        C2          C  0.0732800  0.5911710  0.4999940    0.00000       Uiso       1.00
        C3          C  0.0348900  0.6266110  0.4999940    0.00000       Uiso       1.00
        H4          H  0.1740800  0.6852720  0.4999940    0.00000       Uiso       1.00
        H5          H  0.0633900  0.6860010  0.4999940    0.00000       Uiso       1.00
        C6          C  0.3741210  0.5193310  0.4999940    0.00000       Uiso       1.00
        C7          C  0.4088310  0.4821110  0.4999940    0.00000       Uiso       1.00
        C8          C  0.3733910  0.4082810  0.4999940    0.00000       Uiso       1.00
        H9          H  0.3147310  0.4888110  0.4999940    0.00000       Uiso       1.00
       H10          H  0.3140010  0.3773910  0.4999940    0.00000       Uiso       1.00
       C11          C  0.4806710  0.8547921  0.4999940    0.00000       Uiso       1.00
       C12          C  0.5178910  0.9267220  0.4999940    0.00000       Uiso       1.00
       C13          C  0.5917210  0.9651120  0.4999940    0.00000       Uiso       1.00
       H14          H  0.5111910  0.8259220  0.4999940    0.00000       Uiso       1.00
       H15          H  0.6226110  0.9366120  0.4999940    0.00000       Uiso       1.00
       C16          C  0.8547920  0.3741210  0.4999940    0.00000       Uiso       1.00
       C17          C  0.9267220  0.4088310  0.4999940    0.00000       Uiso       1.00
       C18          C  0.9651120  0.3733910  0.4999940    0.00000       Uiso       1.00
       H19          H  0.8259220  0.3147310  0.4999940    0.00000       Uiso       1.00
       H20          H  0.9366120  0.3140010  0.4999940    0.00000       Uiso       1.00
       C21          C  0.6258810  0.4806710  0.4999940    0.00000       Uiso       1.00
       C22          C  0.5911710  0.5178910  0.4999940    0.00000       Uiso       1.00
       C23          C  0.6266110  0.5917210  0.4999940    0.00000       Uiso       1.00
       H24          H  0.6852720  0.5111910  0.4999940    0.00000       Uiso       1.00
       H25          H  0.6860010  0.6226110  0.4999940    0.00000       Uiso       1.00
       C26          C  0.5193310  0.1452100  0.4999940    0.00000       Uiso       1.00
       C27          C  0.4821110  0.0732800  0.4999940    0.00000       Uiso       1.00
       C28          C  0.4082810  0.0348900  0.4999940    0.00000       Uiso       1.00
       H29          H  0.4888110  0.1740800  0.4999940    0.00000       Uiso       1.00
       H30          H  0.3773910  0.0633900  0.4999940    0.00000       Uiso       1.00
       C31          C  0.6258810  0.1452100  0.4999940    0.00000       Uiso       1.00
       C32          C  0.5911710  0.0732800  0.4999940    0.00000       Uiso       1.00
       C33          C  0.6266110  0.0348900  0.4999940    0.00000       Uiso       1.00
       H34          H  0.6852720  0.1740800  0.4999940    0.00000       Uiso       1.00
       H35          H  0.6860010  0.0633900  0.4999940    0.00000       Uiso       1.00
       C36          C  0.5193310  0.3741210  0.4999940    0.00000       Uiso       1.00
       C37          C  0.4821110  0.4088310  0.4999940    0.00000       Uiso       1.00
       C38          C  0.4082810  0.3733910  0.4999940    0.00000       Uiso       1.00
       H39          H  0.4888110  0.3147310  0.4999940    0.00000       Uiso       1.00
       H40          H  0.3773910  0.3140010  0.4999940    0.00000       Uiso       1.00
       C41          C  0.8547920  0.4806710  0.4999940    0.00000       Uiso       1.00
       C42          C  0.9267220  0.5178910  0.4999940    0.00000       Uiso       1.00
       C43          C  0.9651120  0.5917210  0.4999940    0.00000       Uiso       1.00
       H44          H  0.8259220  0.5111910  0.4999940    0.00000       Uiso       1.00
       H45          H  0.9366120  0.6226110  0.4999940    0.00000       Uiso       1.00
       C46          C  0.3741210  0.8547921  0.4999940    0.00000       Uiso       1.00
       C47          C  0.4088310  0.9267220  0.4999940    0.00000       Uiso       1.00
       C48          C  0.3733910  0.9651120  0.4999940    0.00000       Uiso       1.00
       H49          H  0.3147310  0.8259220  0.4999940    0.00000       Uiso       1.00
       H50          H  0.3140010  0.9366120  0.4999940    0.00000       Uiso       1.00
       C51          C  0.4806710  0.6258810  0.4999940    0.00000       Uiso       1.00
       C52          C  0.5178910  0.5911710  0.4999940    0.00000       Uiso       1.00
       C53          C  0.5917210  0.6266110  0.4999940    0.00000       Uiso       1.00
       H54          H  0.5111910  0.6852720  0.4999940    0.00000       Uiso       1.00
       H55          H  0.6226110  0.6860010  0.4999940    0.00000       Uiso       1.00
       C56          C  0.1452100  0.5193310  0.4999940    0.00000       Uiso       1.00
       C57          C  0.0732800  0.4821110  0.4999940    0.00000       Uiso       1.00
       C58          C  0.0348900  0.4082810  0.4999940    0.00000       Uiso       1.00
       H59          H  0.1740800  0.4888110  0.4999940    0.00000       Uiso       1.00
       H60          H  0.0633900  0.3773910  0.4999940    0.00000       Uiso       1.00
       C61          C  0.1820600  0.5910310  0.4999940    0.00000       Uiso       1.00
       C62          C  0.0365000  0.5182510  0.4999940    0.00000       Uiso       1.00
       B63          B  0.2617710  0.6308860  0.4999940    0.00000       Uiso       1.00
       C64          C  0.4089710  0.5910310  0.4999940    0.00000       Uiso       1.00
       C65          C  0.4817510  0.5182510  0.4999940    0.00000       Uiso       1.00
       B66          B  0.3691160  0.6308860  0.4999940    0.00000       Uiso       1.00
       C67          C  0.4089710  0.8179420  0.4999940    0.00000       Uiso       1.00
       C68          C  0.4817510  0.9635019  0.4999940    0.00000       Uiso       1.00
       B69          B  0.3691160  0.7382320  0.4999940    0.00000       Uiso       1.00
       C70          C  0.8179420  0.4089710  0.4999940    0.00000       Uiso       1.00
       C71          C  0.9635020  0.4817510  0.4999940    0.00000       Uiso       1.00
       B72          B  0.7382320  0.3691160  0.4999940    0.00000       Uiso       1.00
       C73          C  0.5910310  0.4089710  0.4999940    0.00000       Uiso       1.00
       C74          C  0.5182510  0.4817510  0.4999940    0.00000       Uiso       1.00
       B75          B  0.6308860  0.3691160  0.4999940    0.00000       Uiso       1.00
       C76          C  0.5910310  0.1820600  0.4999940    0.00000       Uiso       1.00
       C77          C  0.5182510  0.0365000  0.4999940    0.00000       Uiso       1.00
       B78          B  0.6308860  0.2617710  0.4999940    0.00000       Uiso       1.00
       O79          O  0.2979060  0.5958110  0.4999940    0.00000       Uiso       1.00
       O80          O  0.4041910  0.7020970  0.4999940    0.00000       Uiso       1.00
       O81          O  0.2979060  0.7020970  0.4999940    0.00000       Uiso       1.00
       O82          O  0.7020970  0.4041910  0.4999940    0.00000       Uiso       1.00
       O83          O  0.5958110  0.2979060  0.4999940    0.00000       Uiso       1.00
       O84          O  0.7020970  0.2979060  0.4999940    0.00000       Uiso       1.00
