data_Py-1P-F-COF
_audit_creation_date              0000-00-00
_audit_creation_method            'LanYouShi'
_symmetry_space_group_name_H-M    'P1'
_cell_length_a                    32.5990982
_cell_length_b                    35.9928017
_cell_length_c                    4.0036001
_cell_angle_alpha                 90.0000000
_cell_angle_beta                  90.0000000
_cell_angle_gamma                 90.0000000
loop_
_atom_site_label
_atom_site_type_symbol
_atom_site_fract_x
_atom_site_fract_y
_atom_site_fract_z
_atom_site_U_iso_or_equiv
_atom_site_adp_type
_atom_site_occupancy
        C1          C  0.5442070  0.5342140 -0.2416930    0.00000       Uiso       1.00
        C2          C  0.4785870  0.5668530 -0.3034530    0.00000       Uiso       1.00
        C3          C  0.4124660  0.5346190 -0.1889260    0.00000       Uiso       1.00
        C4          C  0.3875410  0.5671130 -0.1679340    0.00000       Uiso       1.00
        C5          C  0.3489620  0.5688900 -0.3318740    0.00000       Uiso       1.00
        C6          C  0.3235480  0.6003430 -0.3063350    0.00000       Uiso       1.00
        C7          C  0.3361350  0.6317030 -0.1226190    0.00000       Uiso       1.00
        C8          C  0.3745730  0.6305580  0.0398700    0.00000       Uiso       1.00
        C9          C  0.3992350  0.5985650  0.0221790    0.00000       Uiso       1.00
       H10          H  0.4645820  0.5916700 -0.3473160    0.00000       Uiso       1.00
       H11          H  0.3388770  0.5471720 -0.4750060    0.00000       Uiso       1.00
       H12          H  0.2957980  0.6002700 -0.4262130    0.00000       Uiso       1.00
       H13          H  0.3848880  0.6526160  0.1763520    0.00000       Uiso       1.00
       H14          H  0.4260190  0.5985220  0.1534250    0.00000       Uiso       1.00
       C15          C  0.2188650  0.7783860 -0.0154410    0.00000       Uiso       1.00
       C16          C  0.2120860  0.7424960 -0.1515960    0.00000       Uiso       1.00
       C17          C  0.2425130  0.7146650 -0.1363490    0.00000       Uiso       1.00
       F18          F  0.1771850  0.7340330 -0.2960700    0.00000       Uiso       1.00
       F19          F  0.2335560  0.6822960 -0.2671230    0.00000       Uiso       1.00
       C20          C  0.1875530  0.8055660 -0.0355000    0.00000       Uiso       1.00
       N21          N  0.1901580  0.8391510  0.1145350    0.00000       Uiso       1.00
       H22          H  0.8383820  0.2003200 -0.1684170    0.00000       Uiso       1.00
       C23          C  0.4557940  0.4657850 -0.2416930    0.00000       Uiso       1.00
       C24          C  0.5214150  0.4331460 -0.3034530    0.00000       Uiso       1.00
       C25          C  0.5875350  0.4653800 -0.1889260    0.00000       Uiso       1.00
       C26          C  0.6124600  0.4328860 -0.1679340    0.00000       Uiso       1.00
       C27          C  0.6510390  0.4311080 -0.3318740    0.00000       Uiso       1.00
       C28          C  0.6764530  0.3996560 -0.3063350    0.00000       Uiso       1.00
       C29          C  0.6638660  0.3682960 -0.1226190    0.00000       Uiso       1.00
       C30          C  0.6254280  0.3694410  0.0398700    0.00000       Uiso       1.00
       C31          C  0.6007660  0.4014340  0.0221790    0.00000       Uiso       1.00
       H32          H  0.5354190  0.4083290 -0.3473160    0.00000       Uiso       1.00
       H33          H  0.6611240  0.4528270 -0.4750060    0.00000       Uiso       1.00
       H34          H  0.7042030  0.3997290 -0.4262130    0.00000       Uiso       1.00
       H35          H  0.6151130  0.3473830  0.1763520    0.00000       Uiso       1.00
       H36          H  0.5739820  0.4014770  0.1534250    0.00000       Uiso       1.00
       C37          C  0.7811360  0.2216130 -0.0154410    0.00000       Uiso       1.00
       C38          C  0.7879150  0.2575030 -0.1515960    0.00000       Uiso       1.00
       C39          C  0.7574880  0.2853340 -0.1363490    0.00000       Uiso       1.00
       F40          F  0.8228160  0.2659660 -0.2960700    0.00000       Uiso       1.00
       F41          F  0.7664450  0.3177030 -0.2671230    0.00000       Uiso       1.00
       C42          C  0.8124480  0.1944330 -0.0355000    0.00000       Uiso       1.00
       N43          N  0.8098430  0.1608480  0.1145350    0.00000       Uiso       1.00
       H44          H  0.1616200  0.7996790 -0.1684170    0.00000       Uiso       1.00
       C45          C  0.9557950  0.0342140  0.2416930    0.00000       Uiso       1.00
       C46          C  0.0214140  0.0668530  0.3034530    0.00000       Uiso       1.00
       C47          C  0.0875340  0.0346190  0.1889260    0.00000       Uiso       1.00
       C48          C  0.1124590  0.0671140  0.1679340    0.00000       Uiso       1.00
       C49          C  0.1510380  0.0688910  0.3318740    0.00000       Uiso       1.00
       C50          C  0.1764520  0.1003440  0.3063350    0.00000       Uiso       1.00
       C51          C  0.1638660  0.1317040  0.1226190    0.00000       Uiso       1.00
       C52          C  0.1254280  0.1305580 -0.0398700    0.00000       Uiso       1.00
       C53          C  0.1007650  0.0985660 -0.0221790    0.00000       Uiso       1.00
       H54          H  0.0354190  0.0916700  0.3473160    0.00000       Uiso       1.00
       H55          H  0.1611230  0.0471730  0.4750060    0.00000       Uiso       1.00
       H56          H  0.2042020  0.1002700  0.4262130    0.00000       Uiso       1.00
       H57          H  0.1151130  0.1526160 -0.1763520    0.00000       Uiso       1.00
       H58          H  0.0739810  0.0985220 -0.1534250    0.00000       Uiso       1.00
       C59          C  0.2811360  0.2783860  0.0154410    0.00000       Uiso       1.00
       C60          C  0.2879150  0.2424970  0.1515960    0.00000       Uiso       1.00
       C61          C  0.2574880  0.2146660  0.1363490    0.00000       Uiso       1.00
       F62          F  0.3228150  0.2340330  0.2960700    0.00000       Uiso       1.00
       F63          F  0.2664440  0.1822960  0.2671230    0.00000       Uiso       1.00
       C64          C  0.3124470  0.3055670  0.0355000    0.00000       Uiso       1.00
       N65          N  0.3098420  0.3391520 -0.1145350    0.00000       Uiso       1.00
       H66          H  0.6616200  0.7003200  0.1684170    0.00000       Uiso       1.00
       C67          C  0.0442060  0.9657851  0.2416930    0.00000       Uiso       1.00
       C68          C  0.9785870  0.9331461  0.3034530    0.00000       Uiso       1.00
       C69          C  0.9124670  0.9653791  0.1889260    0.00000       Uiso       1.00
       C70          C  0.8875420  0.9328850  0.1679340    0.00000       Uiso       1.00
       C71          C  0.8489630  0.9311079  0.3318740    0.00000       Uiso       1.00
       C72          C  0.8235490  0.8996550  0.3063350    0.00000       Uiso       1.00
       C73          C  0.8361350  0.8682950  0.1226190    0.00000       Uiso       1.00
       C74          C  0.8745730  0.8694410 -0.0398700    0.00000       Uiso       1.00
       C75          C  0.8992360  0.9014330 -0.0221790    0.00000       Uiso       1.00
       H76          H  0.9645820  0.9083290  0.3473160    0.00000       Uiso       1.00
       H77          H  0.8388780  0.9528261  0.4750060    0.00000       Uiso       1.00
       H78          H  0.7957990  0.8997290  0.4262130    0.00000       Uiso       1.00
       H79          H  0.8848880  0.8473830 -0.1763520    0.00000       Uiso       1.00
       H80          H  0.9260200  0.9014770 -0.1534250    0.00000       Uiso       1.00
       C81          C  0.7188650  0.7216130  0.0154410    0.00000       Uiso       1.00
       C82          C  0.7120870  0.7575020  0.1515960    0.00000       Uiso       1.00
       C83          C  0.7425140  0.7853330  0.1363490    0.00000       Uiso       1.00
       F84          F  0.6771860  0.7659660  0.2960700    0.00000       Uiso       1.00
       F85          F  0.7335570  0.8177020  0.2671230    0.00000       Uiso       1.00
       C86          C  0.6875540  0.6944320  0.0355000    0.00000       Uiso       1.00
       N87          N  0.6901590  0.6608470 -0.1145350    0.00000       Uiso       1.00
       H88          H  0.3383810  0.2996790  0.1684170    0.00000       Uiso       1.00
       C89          C  0.9557950  0.9657851  0.2416930    0.00000       Uiso       1.00
       C90          C  0.0214140  0.9331461  0.3034530    0.00000       Uiso       1.00
       C91          C  0.0875340  0.9653791  0.1889260    0.00000       Uiso       1.00
       C92          C  0.1124590  0.9328850  0.1679340    0.00000       Uiso       1.00
       C93          C  0.1510380  0.9311079  0.3318740    0.00000       Uiso       1.00
       C94          C  0.1764520  0.8996550  0.3063350    0.00000       Uiso       1.00
       C95          C  0.1638660  0.8682950  0.1226190    0.00000       Uiso       1.00
       C96          C  0.1254280  0.8694410 -0.0398700    0.00000       Uiso       1.00
       C97          C  0.1007650  0.9014330 -0.0221790    0.00000       Uiso       1.00
       H98          H  0.0354190  0.9083290  0.3473160    0.00000       Uiso       1.00
       H99          H  0.1611230  0.9528261  0.4750060    0.00000       Uiso       1.00
      H100          H  0.2042020  0.8997290  0.4262130    0.00000       Uiso       1.00
      H101          H  0.1151130  0.8473830 -0.1763520    0.00000       Uiso       1.00
      H102          H  0.0739810  0.9014770 -0.1534250    0.00000       Uiso       1.00
      C103          C  0.2811360  0.7216130  0.0154410    0.00000       Uiso       1.00
      C104          C  0.2879150  0.7575020  0.1515960    0.00000       Uiso       1.00
      C105          C  0.2574880  0.7853330  0.1363490    0.00000       Uiso       1.00
      F106          F  0.3228150  0.7659660  0.2960700    0.00000       Uiso       1.00
      F107          F  0.2664440  0.8177020  0.2671230    0.00000       Uiso       1.00
      C108          C  0.3124470  0.6944320  0.0355000    0.00000       Uiso       1.00
      N109          N  0.3098420  0.6608470 -0.1145350    0.00000       Uiso       1.00
      H110          H  0.6616200  0.2996790  0.1684170    0.00000       Uiso       1.00
      C111          C  0.0442060  0.0342140  0.2416930    0.00000       Uiso       1.00
      C112          C  0.9785870  0.0668530  0.3034530    0.00000       Uiso       1.00
      C113          C  0.9124670  0.0346190  0.1889260    0.00000       Uiso       1.00
      C114          C  0.8875420  0.0671140  0.1679340    0.00000       Uiso       1.00
      C115          C  0.8489630  0.0688910  0.3318740    0.00000       Uiso       1.00
      C116          C  0.8235490  0.1003440  0.3063350    0.00000       Uiso       1.00
      C117          C  0.8361350  0.1317040  0.1226190    0.00000       Uiso       1.00
      C118          C  0.8745730  0.1305580 -0.0398700    0.00000       Uiso       1.00
      C119          C  0.8992360  0.0985660 -0.0221790    0.00000       Uiso       1.00
      H120          H  0.9645820  0.0916700  0.3473160    0.00000       Uiso       1.00
      H121          H  0.8388780  0.0471730  0.4750060    0.00000       Uiso       1.00
      H122          H  0.7957990  0.1002700  0.4262130    0.00000       Uiso       1.00
      H123          H  0.8848880  0.1526160 -0.1763520    0.00000       Uiso       1.00
      H124          H  0.9260200  0.0985220 -0.1534250    0.00000       Uiso       1.00
      C125          C  0.7188650  0.2783860  0.0154410    0.00000       Uiso       1.00
      C126          C  0.7120870  0.2424970  0.1515960    0.00000       Uiso       1.00
      C127          C  0.7425140  0.2146660  0.1363490    0.00000       Uiso       1.00
      F128          F  0.6771860  0.2340330  0.2960700    0.00000       Uiso       1.00
      F129          F  0.7335570  0.1822960  0.2671230    0.00000       Uiso       1.00
      C130          C  0.6875540  0.3055670  0.0355000    0.00000       Uiso       1.00
      N131          N  0.6901590  0.3391520 -0.1145350    0.00000       Uiso       1.00
      H132          H  0.3383810  0.7003200  0.1684170    0.00000       Uiso       1.00
      C133          C  0.5442070  0.4657850 -0.2416930    0.00000       Uiso       1.00
      C134          C  0.4785870  0.4331460 -0.3034530    0.00000       Uiso       1.00
      C135          C  0.4124660  0.4653800 -0.1889260    0.00000       Uiso       1.00
      C136          C  0.3875410  0.4328860 -0.1679340    0.00000       Uiso       1.00
      C137          C  0.3489620  0.4311080 -0.3318740    0.00000       Uiso       1.00
      C138          C  0.3235480  0.3996560 -0.3063350    0.00000       Uiso       1.00
      C139          C  0.3361350  0.3682960 -0.1226190    0.00000       Uiso       1.00
      C140          C  0.3745730  0.3694410  0.0398700    0.00000       Uiso       1.00
      C141          C  0.3992350  0.4014340  0.0221790    0.00000       Uiso       1.00
      H142          H  0.4645820  0.4083290 -0.3473160    0.00000       Uiso       1.00
      H143          H  0.3388770  0.4528270 -0.4750060    0.00000       Uiso       1.00
      H144          H  0.2957980  0.3997290 -0.4262130    0.00000       Uiso       1.00
      H145          H  0.3848880  0.3473830  0.1763520    0.00000       Uiso       1.00
      H146          H  0.4260190  0.4014770  0.1534250    0.00000       Uiso       1.00
      C147          C  0.2188650  0.2216130 -0.0154410    0.00000       Uiso       1.00
      C148          C  0.2120860  0.2575030 -0.1515960    0.00000       Uiso       1.00
      C149          C  0.2425130  0.2853340 -0.1363490    0.00000       Uiso       1.00
      F150          F  0.1771850  0.2659660 -0.2960700    0.00000       Uiso       1.00
      F151          F  0.2335560  0.3177030 -0.2671230    0.00000       Uiso       1.00
      C152          C  0.1875530  0.1944330 -0.0355000    0.00000       Uiso       1.00
      N153          N  0.1901580  0.1608480  0.1145350    0.00000       Uiso       1.00
      H154          H  0.8383820  0.7996790 -0.1684170    0.00000       Uiso       1.00
      C155          C  0.4557940  0.5342140 -0.2416930    0.00000       Uiso       1.00
      C156          C  0.5214150  0.5668530 -0.3034530    0.00000       Uiso       1.00
      C157          C  0.5875350  0.5346190 -0.1889260    0.00000       Uiso       1.00
      C158          C  0.6124600  0.5671130 -0.1679340    0.00000       Uiso       1.00
      C159          C  0.6510390  0.5688900 -0.3318740    0.00000       Uiso       1.00
      C160          C  0.6764530  0.6003430 -0.3063350    0.00000       Uiso       1.00
      C161          C  0.6638660  0.6317030 -0.1226190    0.00000       Uiso       1.00
      C162          C  0.6254280  0.6305580  0.0398700    0.00000       Uiso       1.00
      C163          C  0.6007660  0.5985650  0.0221790    0.00000       Uiso       1.00
      H164          H  0.5354190  0.5916700 -0.3473160    0.00000       Uiso       1.00
      H165          H  0.6611240  0.5471720 -0.4750060    0.00000       Uiso       1.00
      H166          H  0.7042030  0.6002700 -0.4262130    0.00000       Uiso       1.00
      H167          H  0.6151130  0.6526160  0.1763520    0.00000       Uiso       1.00
      H168          H  0.5739820  0.5985220  0.1534250    0.00000       Uiso       1.00
      C169          C  0.7811360  0.7783860 -0.0154410    0.00000       Uiso       1.00
      C170          C  0.7879150  0.7424960 -0.1515960    0.00000       Uiso       1.00
      C171          C  0.7574880  0.7146650 -0.1363490    0.00000       Uiso       1.00
      F172          F  0.8228160  0.7340330 -0.2960700    0.00000       Uiso       1.00
      F173          F  0.7664450  0.6822960 -0.2671230    0.00000       Uiso       1.00
      C174          C  0.8124480  0.8055660 -0.0355000    0.00000       Uiso       1.00
      N175          N  0.8098430  0.8391510  0.1145350    0.00000       Uiso       1.00
      H176          H  0.1616200  0.2003200 -0.1684170    0.00000       Uiso       1.00
      C177          C  0.3926710  0.4999990 -0.1468810    0.00000       Uiso       1.00
      C178          C  0.5220450  0.4999990 -0.2401510    0.00000       Uiso       1.00
      H179          H  0.3622090  0.4999990 -0.0828380    0.00000       Uiso       1.00
      C180          C  0.6073300  0.4999990 -0.1468810    0.00000       Uiso       1.00
      C181          C  0.4779560  0.4999990 -0.2401510    0.00000       Uiso       1.00
      H182          H  0.6377920  0.4999990 -0.0828380    0.00000       Uiso       1.00
      C183          C  0.1073290  0.0000000  0.1468810    0.00000       Uiso       1.00
      C184          C  0.9779570  0.0000000  0.2401510    0.00000       Uiso       1.00
      H185          H  0.1377920  0.0000000  0.0828380    0.00000       Uiso       1.00
      C186          C  0.8926720  0.0000000  0.1468810    0.00000       Uiso       1.00
      C187          C  0.0220440  0.0000000  0.2401510    0.00000       Uiso       1.00
      H188          H  0.8622090  0.0000000  0.0828380    0.00000       Uiso       1.00
