data_Py-22-BPYPH_COF
_audit_creation_date              0000-00-00
_audit_creation_method            'LanYouShi'
_symmetry_space_group_name_H-M    'P1'
_cell_length_a                    37.6708984
_cell_length_b                    43.2742004
_cell_length_c                    4.0070000
_cell_angle_alpha                 90.0000000
_cell_angle_beta                  90.0000000
_cell_angle_gamma                 90.0000000
loop_
_atom_site_label
_atom_site_type_symbol
_atom_site_fract_x
_atom_site_fract_y
_atom_site_fract_z
_atom_site_U_iso_or_equiv
_atom_site_adp_type
_atom_site_occupancy
        C1          C  0.9673039  0.4667180  0.3394610    0.00000       Uiso       1.00
        C2          C  0.4673270  0.9666940  0.5757580    0.00000       Uiso       1.00
        C3          C  0.0327240  0.5332810  0.3394610    0.00000       Uiso       1.00
        C4          C  0.5327010  0.0333050  0.5757580    0.00000       Uiso       1.00
        C5          C  0.9673039  0.5332810  0.3394610    0.00000       Uiso       1.00
        C6          C  0.4673270  0.0333050  0.5757580    0.00000       Uiso       1.00
        C7          C  0.0327240  0.4667180  0.3394610    0.00000       Uiso       1.00
        C8          C  0.5327010  0.9666940  0.5757580    0.00000       Uiso       1.00
        C9          C  0.9360480  0.5161440  0.2794160    0.00000       Uiso       1.00
       C10          C  0.4361030  0.0161410  0.5149670    0.00000       Uiso       1.00
       C11          C  0.0639810  0.4838550  0.2794160    0.00000       Uiso       1.00
       C12          C  0.5639260  0.9838580  0.5149670    0.00000       Uiso       1.00
       C13          C  0.9360480  0.4838550  0.2794160    0.00000       Uiso       1.00
       C14          C  0.4361030  0.9838580  0.5149670    0.00000       Uiso       1.00
       C15          C  0.0639810  0.5161440  0.2794160    0.00000       Uiso       1.00
       C16          C  0.5639260  0.0161410  0.5149670    0.00000       Uiso       1.00
       C17          C  0.9669359  0.5659270  0.3914660    0.00000       Uiso       1.00
       C18          C  0.4669570  0.0659790  0.6266650    0.00000       Uiso       1.00
       C19          C  0.0330920  0.4340720  0.3914660    0.00000       Uiso       1.00
       C20          C  0.5330720  0.9340200  0.6266650    0.00000       Uiso       1.00
       C21          C  0.9669359  0.4340720  0.3914660    0.00000       Uiso       1.00
       C22          C  0.4669570  0.9340200  0.6266650    0.00000       Uiso       1.00
       C23          C  0.0330920  0.5659270  0.3914660    0.00000       Uiso       1.00
       C24          C  0.5330720  0.0659790  0.6266650    0.00000       Uiso       1.00
       C25          C  0.9359440  0.5847630  0.4132020    0.00000       Uiso       1.00
       C26          C  0.4358690  0.0847130  0.6456070    0.00000       Uiso       1.00
       C27          C  0.0640850  0.4152360  0.4132020    0.00000       Uiso       1.00
       C28          C  0.5641600  0.9152860  0.6456070    0.00000       Uiso       1.00
       C29          C  0.9359440  0.4152360  0.4132020    0.00000       Uiso       1.00
       C30          C  0.4358690  0.9152860  0.6456070    0.00000       Uiso       1.00
       C31          C  0.0640850  0.5847630  0.4132020    0.00000       Uiso       1.00
       C32          C  0.5641600  0.0847130  0.6456070    0.00000       Uiso       1.00
       C33          C  0.9060400  0.5761620  0.6058380    0.00000       Uiso       1.00
       C34          C  0.4059100  0.0760140  0.8368760    0.00000       Uiso       1.00
       C35          C  0.0939890  0.4238370  0.6058380    0.00000       Uiso       1.00
       C36          C  0.5941190  0.9239849  0.8368760    0.00000       Uiso       1.00
       C37          C  0.9060400  0.4238370  0.6058380    0.00000       Uiso       1.00
       C38          C  0.4059100  0.9239849  0.8368760    0.00000       Uiso       1.00
       C39          C  0.0939890  0.5761620  0.6058380    0.00000       Uiso       1.00
       C40          C  0.5941190  0.0760140  0.8368760    0.00000       Uiso       1.00
       C41          C  0.8757290  0.5950630  0.6280670    0.00000       Uiso       1.00
       C42          C  0.3750500  0.0942920  0.8485550    0.00000       Uiso       1.00
       C43          C  0.1243000  0.4049360  0.6280670    0.00000       Uiso       1.00
       C44          C  0.6249790  0.9057069  0.8485550    0.00000       Uiso       1.00
       C45          C  0.8757290  0.4049360  0.6280670    0.00000       Uiso       1.00
       C46          C  0.3750500  0.9057069  0.8485550    0.00000       Uiso       1.00
       C47          C  0.1243000  0.5950630  0.6280670    0.00000       Uiso       1.00
       C48          C  0.6249790  0.0942920  0.8485550    0.00000       Uiso       1.00
       C49          C  0.8746450  0.6241940  0.4689250    0.00000       Uiso       1.00
       C50          C  0.3733810  0.1229060  0.6792840    0.00000       Uiso       1.00
       C51          C  0.1253840  0.3758050  0.4689250    0.00000       Uiso       1.00
       C52          C  0.6266470  0.8770930  0.6792840    0.00000       Uiso       1.00
       C53          C  0.8746450  0.3758050  0.4689250    0.00000       Uiso       1.00
       C54          C  0.3733810  0.8770930  0.6792840    0.00000       Uiso       1.00
       C55          C  0.1253840  0.6241940  0.4689250    0.00000       Uiso       1.00
       C56          C  0.6266470  0.1229060  0.6792840    0.00000       Uiso       1.00
       C57          C  0.9045200  0.6332360  0.2790980    0.00000       Uiso       1.00
       C58          C  0.4035870  0.1323830  0.4966420    0.00000       Uiso       1.00
       C59          C  0.0955090  0.3667630  0.2790980    0.00000       Uiso       1.00
       C60          C  0.5964420  0.8676159  0.4966420    0.00000       Uiso       1.00
       C61          C  0.9045200  0.3667630  0.2790980    0.00000       Uiso       1.00
       C62          C  0.4035870  0.8676159  0.4966420    0.00000       Uiso       1.00
       C63          C  0.0955090  0.6332360  0.2790980    0.00000       Uiso       1.00
       C64          C  0.5964420  0.1323830  0.4966420    0.00000       Uiso       1.00
       C65          C  0.9342650  0.6137600  0.2486220    0.00000       Uiso       1.00
       C66          C  0.4339540  0.1135050  0.4771260    0.00000       Uiso       1.00
       C67          C  0.0657640  0.3862390  0.2486220    0.00000       Uiso       1.00
       C68          C  0.5660750  0.8864940  0.4771260    0.00000       Uiso       1.00
       C69          C  0.9342650  0.3862390  0.2486220    0.00000       Uiso       1.00
       C70          C  0.4339540  0.8864940  0.4771260    0.00000       Uiso       1.00
       C71          C  0.0657640  0.6137600  0.2486220    0.00000       Uiso       1.00
       C72          C  0.5660750  0.1135050  0.4771260    0.00000       Uiso       1.00
       C73          C  0.8446620  0.6433870  0.5059650    0.00000       Uiso       1.00
       C74          C  0.3422510  0.1409190  0.6955290    0.00000       Uiso       1.00
       C75          C  0.1553670  0.3566120  0.5059650    0.00000       Uiso       1.00
       C76          C  0.6577780  0.8590801  0.6955290    0.00000       Uiso       1.00
       C77          C  0.8446620  0.3566120  0.5059650    0.00000       Uiso       1.00
       C78          C  0.3422510  0.8590801  0.6955290    0.00000       Uiso       1.00
       C79          C  0.1553670  0.6433870  0.5059650    0.00000       Uiso       1.00
       C80          C  0.6577780  0.1409190  0.6955290    0.00000       Uiso       1.00
       H81          H  0.9123850  0.5268350  0.2367120    0.00000       Uiso       1.00
       H82          H  0.4124490  0.0267990  0.4712290    0.00000       Uiso       1.00
       H83          H  0.0876430  0.4731640  0.2367120    0.00000       Uiso       1.00
       H84          H  0.5875800  0.9732000  0.4712290    0.00000       Uiso       1.00
       H85          H  0.9123850  0.4731640  0.2367120    0.00000       Uiso       1.00
       H86          H  0.4124490  0.9732000  0.4712290    0.00000       Uiso       1.00
       H87          H  0.0876430  0.5268350  0.2367120    0.00000       Uiso       1.00
       H88          H  0.5875800  0.0267990  0.4712290    0.00000       Uiso       1.00
       H89          H  0.9062080  0.5560020  0.7372570    0.00000       Uiso       1.00
       H90          H  0.4063730  0.0561430  0.9733390    0.00000       Uiso       1.00
       H91          H  0.0938210  0.4439970  0.7372570    0.00000       Uiso       1.00
       H92          H  0.5936560  0.9438559  0.9733390    0.00000       Uiso       1.00
       H93          H  0.9062080  0.4439970  0.7372570    0.00000       Uiso       1.00
       H94          H  0.4063730  0.9438559  0.9733390    0.00000       Uiso       1.00
       H95          H  0.0938210  0.5560020  0.7372570    0.00000       Uiso       1.00
       H96          H  0.5936560  0.0561430  0.9733390    0.00000       Uiso       1.00
       H97          H  0.8547010  0.5875850  0.7684250    0.00000       Uiso       1.00
       H98          H  0.3539420  0.0866510  0.9867490    0.00000       Uiso       1.00
       H99          H  0.1453270  0.4124140  0.7684250    0.00000       Uiso       1.00
      H100          H  0.6460870  0.9133480  0.9867490    0.00000       Uiso       1.00
      H101          H  0.8547010  0.4124140  0.7684250    0.00000       Uiso       1.00
      H102          H  0.3539420  0.9133480  0.9867490    0.00000       Uiso       1.00
      H103          H  0.1453270  0.5875850  0.7684250    0.00000       Uiso       1.00
      H104          H  0.6460870  0.0866510  0.9867490    0.00000       Uiso       1.00
      H105          H  0.9047010  0.6540620  0.1579300    0.00000       Uiso       1.00
      H106          H  0.4035020  0.1530080  0.3714760    0.00000       Uiso       1.00
      H107          H  0.0953280  0.3459370  0.1579300    0.00000       Uiso       1.00
      H108          H  0.5965270  0.8469910  0.3714760    0.00000       Uiso       1.00
      H109          H  0.9047010  0.3459370  0.1579300    0.00000       Uiso       1.00
      H110          H  0.4035020  0.8469910  0.3714760    0.00000       Uiso       1.00
      H111          H  0.0953280  0.6540620  0.1579300    0.00000       Uiso       1.00
      H112          H  0.5965270  0.1530080  0.3714760    0.00000       Uiso       1.00
      H113          H  0.9548170  0.6209980  0.1010180    0.00000       Uiso       1.00
      H114          H  0.4546970  0.1209490  0.3331430    0.00000       Uiso       1.00
      H115          H  0.0452120  0.3790010  0.1010180    0.00000       Uiso       1.00
      H116          H  0.5453320  0.8790500  0.3331430    0.00000       Uiso       1.00
      H117          H  0.9548170  0.3790010  0.1010180    0.00000       Uiso       1.00
      H118          H  0.4546970  0.8790500  0.3331430    0.00000       Uiso       1.00
      H119          H  0.0452120  0.6209980  0.1010180    0.00000       Uiso       1.00
      H120          H  0.5453320  0.1209490  0.3331430    0.00000       Uiso       1.00
      H121          H  0.8233010  0.6352160  0.6365500    0.00000       Uiso       1.00
      H122          H  0.3212590  0.1328130  0.8316900    0.00000       Uiso       1.00
      H123          H  0.1767270  0.3647830  0.6365500    0.00000       Uiso       1.00
      H124          H  0.6787700  0.8671861  0.8316900    0.00000       Uiso       1.00
      H125          H  0.8233010  0.3647830  0.6365500    0.00000       Uiso       1.00
      H126          H  0.3212590  0.8671861  0.8316900    0.00000       Uiso       1.00
      H127          H  0.1767270  0.6352160  0.6365500    0.00000       Uiso       1.00
      H128          H  0.6787700  0.1328130  0.8316900    0.00000       Uiso       1.00
      N129          N  0.8438210  0.6724690  0.3815710    0.00000       Uiso       1.00
      N130          N  0.3394410  0.1685800  0.5397050    0.00000       Uiso       1.00
      N131          N  0.1562080  0.3275300  0.3815710    0.00000       Uiso       1.00
      N132          N  0.6605880  0.8314190  0.5397050    0.00000       Uiso       1.00
      N133          N  0.8438210  0.3275300  0.3815710    0.00000       Uiso       1.00
      N134          N  0.3394410  0.8314190  0.5397050    0.00000       Uiso       1.00
      N135          N  0.1562080  0.6724690  0.3815710    0.00000       Uiso       1.00
      N136          N  0.6605880  0.1685800  0.5397050    0.00000       Uiso       1.00
      C137          C  0.0000140  0.5808380  0.4331990    0.00000       Uiso       1.00
      C138          C  0.0000140  0.4191610  0.4331990    0.00000       Uiso       1.00
      C139          C  0.5000140  0.0809440  0.6675820    0.00000       Uiso       1.00
      C140          C  0.5000140  0.9190559  0.6675820    0.00000       Uiso       1.00
      C141          C  0.0000140  0.4834000  0.3407110    0.00000       Uiso       1.00
      C142          C  0.0000140  0.5165990  0.3407110    0.00000       Uiso       1.00
      C143          C  0.5000140  0.9833941  0.5776910    0.00000       Uiso       1.00
      C144          C  0.5000140  0.0166050  0.5776910    0.00000       Uiso       1.00
      H145          H  0.0000140  0.6037670  0.4975470    0.00000       Uiso       1.00
      H146          H  0.0000140  0.3962320  0.4975470    0.00000       Uiso       1.00
      H147          H  0.5000140  0.1039200  0.7298950    0.00000       Uiso       1.00
      H148          H  0.5000140  0.8960790  0.7298950    0.00000       Uiso       1.00
      C149          C  0.1818510  0.3056070  0.3945980    0.00000       Uiso       1.00
      C150          C  0.1726060  0.2758040  0.2833470    0.00000       Uiso       1.00
      C151          C  0.1972470  0.2513640  0.2987220    0.00000       Uiso       1.00
      C152          C  0.2318030  0.2568560  0.4240150    0.00000       Uiso       1.00
      N153          N  0.2400590  0.2861300  0.5216370    0.00000       Uiso       1.00
      C154          C  0.2168380  0.3101130  0.5121060    0.00000       Uiso       1.00
      H155          H  0.1476810  0.2718390  0.1915620    0.00000       Uiso       1.00
      H156          H  0.1899790  0.2299130  0.2167430    0.00000       Uiso       1.00
      H157          H  0.2252370  0.3312320  0.5917530    0.00000       Uiso       1.00
      C158          C  0.6883320  0.8115830  0.5174560    0.00000       Uiso       1.00
      C159          C  0.6814790  0.7815561  0.3978290    0.00000       Uiso       1.00
      N160          N  0.7080820  0.7604830  0.3731620    0.00000       Uiso       1.00
      C161          C  0.7424670  0.7666130  0.4546110    0.00000       Uiso       1.00
      C162          C  0.7507720  0.7966090  0.5717960    0.00000       Uiso       1.00
      C163          C  0.7237290  0.8188850  0.6035710    0.00000       Uiso       1.00
      H164          H  0.6563450  0.7753251  0.3300990    0.00000       Uiso       1.00
      H165          H  0.7761570  0.8022460  0.6382340    0.00000       Uiso       1.00
      H166          H  0.7301150  0.8403690  0.6891970    0.00000       Uiso       1.00
      C167          C  0.8181780  0.6943920  0.3945980    0.00000       Uiso       1.00
      C168          C  0.8274230  0.7241950  0.2833470    0.00000       Uiso       1.00
      C169          C  0.8027820  0.7486350  0.2987220    0.00000       Uiso       1.00
      C170          C  0.7682260  0.7431430  0.4240150    0.00000       Uiso       1.00
      N171          N  0.7599700  0.7138690  0.5216370    0.00000       Uiso       1.00
      C172          C  0.7831910  0.6898860  0.5121060    0.00000       Uiso       1.00
      H173          H  0.8523480  0.7281600  0.1915620    0.00000       Uiso       1.00
      H174          H  0.8100500  0.7700860  0.2167430    0.00000       Uiso       1.00
      H175          H  0.7747910  0.6687670  0.5917530    0.00000       Uiso       1.00
      C176          C  0.3116970  0.1884160  0.5174560    0.00000       Uiso       1.00
      C177          C  0.3185500  0.2184430  0.3978290    0.00000       Uiso       1.00
      N178          N  0.2919470  0.2395160  0.3731620    0.00000       Uiso       1.00
      C179          C  0.2575620  0.2333860  0.4546110    0.00000       Uiso       1.00
      C180          C  0.2492570  0.2033900  0.5717960    0.00000       Uiso       1.00
      C181          C  0.2763000  0.1811140  0.6035710    0.00000       Uiso       1.00
      H182          H  0.3436840  0.2246740  0.3300990    0.00000       Uiso       1.00
      H183          H  0.2238720  0.1977530  0.6382340    0.00000       Uiso       1.00
      H184          H  0.2699140  0.1596300  0.6891970    0.00000       Uiso       1.00
      C185          C  0.1818510  0.6943920  0.3945980    0.00000       Uiso       1.00
      C186          C  0.1726060  0.7241950  0.2833470    0.00000       Uiso       1.00
      C187          C  0.1972470  0.7486350  0.2987220    0.00000       Uiso       1.00
      C188          C  0.2318030  0.7431430  0.4240150    0.00000       Uiso       1.00
      N189          N  0.2400590  0.7138690  0.5216370    0.00000       Uiso       1.00
      C190          C  0.2168380  0.6898860  0.5121060    0.00000       Uiso       1.00
      H191          H  0.1476810  0.7281600  0.1915620    0.00000       Uiso       1.00
      H192          H  0.1899790  0.7700860  0.2167430    0.00000       Uiso       1.00
      H193          H  0.2252370  0.6687670  0.5917530    0.00000       Uiso       1.00
      C194          C  0.6883320  0.1884160  0.5174560    0.00000       Uiso       1.00
      C195          C  0.6814790  0.2184430  0.3978290    0.00000       Uiso       1.00
      N196          N  0.7080820  0.2395160  0.3731620    0.00000       Uiso       1.00
      C197          C  0.7424670  0.2333860  0.4546110    0.00000       Uiso       1.00
      C198          C  0.7507720  0.2033900  0.5717960    0.00000       Uiso       1.00
      C199          C  0.7237290  0.1811140  0.6035710    0.00000       Uiso       1.00
      H200          H  0.6563450  0.2246740  0.3300990    0.00000       Uiso       1.00
      H201          H  0.7761570  0.1977530  0.6382340    0.00000       Uiso       1.00
      H202          H  0.7301150  0.1596300  0.6891970    0.00000       Uiso       1.00
      C203          C  0.8181780  0.3056070  0.3945980    0.00000       Uiso       1.00
      C204          C  0.8274230  0.2758040  0.2833470    0.00000       Uiso       1.00
      C205          C  0.8027820  0.2513640  0.2987220    0.00000       Uiso       1.00
      C206          C  0.7682260  0.2568560  0.4240150    0.00000       Uiso       1.00
      N207          N  0.7599700  0.2861300  0.5216370    0.00000       Uiso       1.00
      C208          C  0.7831910  0.3101130  0.5121060    0.00000       Uiso       1.00
      H209          H  0.8523480  0.2718390  0.1915620    0.00000       Uiso       1.00
      H210          H  0.8100500  0.2299130  0.2167430    0.00000       Uiso       1.00
      H211          H  0.7747910  0.3312320  0.5917530    0.00000       Uiso       1.00
      C212          C  0.3116970  0.8115830  0.5174560    0.00000       Uiso       1.00
      C213          C  0.3185500  0.7815561  0.3978290    0.00000       Uiso       1.00
      N214          N  0.2919470  0.7604830  0.3731620    0.00000       Uiso       1.00
      C215          C  0.2575620  0.7666130  0.4546110    0.00000       Uiso       1.00
      C216          C  0.2492570  0.7966090  0.5717960    0.00000       Uiso       1.00
      C217          C  0.2763000  0.8188850  0.6035710    0.00000       Uiso       1.00
      H218          H  0.3436840  0.7753251  0.3300990    0.00000       Uiso       1.00
      H219          H  0.2238720  0.8022460  0.6382340    0.00000       Uiso       1.00
      H220          H  0.2699140  0.8403690  0.6891970    0.00000       Uiso       1.00
