data_BBO-COF-2
_audit_creation_date              0000-00-00
_audit_creation_method            'LanYouShi'
_symmetry_space_group_name_H-M    'P1'
_cell_length_a                    36.2442017
_cell_length_b                    36.2442017
_cell_length_c                    3.7123001
_cell_angle_alpha                 90.0000000
_cell_angle_beta                  90.0000000
_cell_angle_gamma                 120.0000000
loop_
_atom_site_label
_atom_site_type_symbol
_atom_site_fract_x
_atom_site_fract_y
_atom_site_fract_z
_atom_site_U_iso_or_equiv
_atom_site_adp_type
_atom_site_occupancy
        C1          C  0.4994590  0.4616160  0.5000040    0.00000       Uiso       1.00
        C2          C  0.4619170  0.4999710  0.5000040    0.00000       Uiso       1.00
        C3          C  0.5383830  0.0378430  0.5000040    0.00000       Uiso       1.00
        C4          C  0.5000280  0.9619460  0.5000040    0.00000       Uiso       1.00
        C5          C  0.9621570  0.5005400  0.5000040    0.00000       Uiso       1.00
        C6          C  0.0380540  0.5380830  0.5000040    0.00000       Uiso       1.00
        C7          C  0.5005400  0.5383830  0.5000040    0.00000       Uiso       1.00
        C8          C  0.5380830  0.5000290  0.5000040    0.00000       Uiso       1.00
        C9          C  0.4616160  0.9621570  0.5000040    0.00000       Uiso       1.00
       C10          C  0.4999710  0.0380540  0.5000040    0.00000       Uiso       1.00
       C11          C  0.0378430  0.4994590  0.5000040    0.00000       Uiso       1.00
       C12          C  0.9619460  0.4619170  0.5000040    0.00000       Uiso       1.00
       C13          C  0.4601300  0.4603890  0.5000040    0.00000       Uiso       1.00
       C14          C  0.5396110  0.9997401  0.5000040    0.00000       Uiso       1.00
       C15          C  0.0002600  0.5398700  0.5000040    0.00000       Uiso       1.00
       C16          C  0.5398700  0.5396110  0.5000040    0.00000       Uiso       1.00
       C17          C  0.4603890  0.0002600  0.5000040    0.00000       Uiso       1.00
       C18          C  0.9997400  0.4601300  0.5000040    0.00000       Uiso       1.00
       N19          N  0.5075650  0.4296190  0.5000040    0.00000       Uiso       1.00
       O20          O  0.4300630  0.5086470  0.5000040    0.00000       Uiso       1.00
       N21          N  0.5703810  0.0779470  0.5000040    0.00000       Uiso       1.00
       O22          O  0.4913530  0.9214160  0.5000040    0.00000       Uiso       1.00
       N23          N  0.9220530  0.4924340  0.5000040    0.00000       Uiso       1.00
       O24          O  0.0785840  0.5699370  0.5000040    0.00000       Uiso       1.00
       N25          N  0.4924340  0.5703810  0.5000040    0.00000       Uiso       1.00
       O26          O  0.5699370  0.4913520  0.5000040    0.00000       Uiso       1.00
       N27          N  0.4296190  0.9220530  0.5000040    0.00000       Uiso       1.00
       O28          O  0.5086470  0.0785840  0.5000040    0.00000       Uiso       1.00
       N29          N  0.0779470  0.5075650  0.5000040    0.00000       Uiso       1.00
       O30          O  0.9214160  0.4300630  0.5000040    0.00000       Uiso       1.00
       C31          C  0.4493580  0.5520740  0.5000040    0.00000       Uiso       1.00
       C32          C  0.4479260  0.8972830  0.5000040    0.00000       Uiso       1.00
       C33          C  0.1027170  0.5506420  0.5000040    0.00000       Uiso       1.00
       C34          C  0.5506420  0.4479260  0.5000040    0.00000       Uiso       1.00
       C35          C  0.5520740  0.1027170  0.5000040    0.00000       Uiso       1.00
       C36          C  0.8972830  0.4493580  0.5000040    0.00000       Uiso       1.00
       H37          H  0.4319800  0.4325130  0.5000040    0.00000       Uiso       1.00
       H38          H  0.5680190  0.5674860  0.5000040    0.00000       Uiso       1.00
       H39          H  0.5674860  0.9994670  0.5000040    0.00000       Uiso       1.00
       H40          H  0.0005330  0.5680190  0.5000040    0.00000       Uiso       1.00
       H41          H  0.4325130  0.0005330  0.5000040    0.00000       Uiso       1.00
       H42          H  0.9994670  0.4319800  0.5000040    0.00000       Uiso       1.00
       C43          C  0.5516640  0.3804710  0.5000040    0.00000       Uiso       1.00
       C44          C  0.5744520  0.3584550  0.5000040    0.00000       Uiso       1.00
       C45          C  0.3821160  0.5529190  0.5000040    0.00000       Uiso       1.00
       C46          C  0.3597030  0.5753110  0.5000040    0.00000       Uiso       1.00
       C47          C  0.6195290  0.1711930  0.5000040    0.00000       Uiso       1.00
       C48          C  0.6415440  0.2159970  0.5000040    0.00000       Uiso       1.00
       C49          C  0.4470800  0.8291960  0.5000040    0.00000       Uiso       1.00
       C50          C  0.4246890  0.7843920  0.5000040    0.00000       Uiso       1.00
       C51          C  0.8288070  0.4483350  0.5000040    0.00000       Uiso       1.00
       C52          C  0.7840030  0.4255470  0.5000040    0.00000       Uiso       1.00
       C53          C  0.1708040  0.6178839  0.5000040    0.00000       Uiso       1.00
       C54          C  0.2156080  0.6402970  0.5000040    0.00000       Uiso       1.00
       C55          C  0.4483350  0.6195290  0.5000040    0.00000       Uiso       1.00
       C56          C  0.4255470  0.6415440  0.5000040    0.00000       Uiso       1.00
       C57          C  0.6178840  0.4470800  0.5000040    0.00000       Uiso       1.00
       C58          C  0.6402970  0.4246890  0.5000040    0.00000       Uiso       1.00
       C59          C  0.3804710  0.8288070  0.5000040    0.00000       Uiso       1.00
       C60          C  0.3584550  0.7840030  0.5000040    0.00000       Uiso       1.00
       C61          C  0.5529200  0.1708040  0.5000040    0.00000       Uiso       1.00
       C62          C  0.5753110  0.2156080  0.5000040    0.00000       Uiso       1.00
       C63          C  0.1711930  0.5516640  0.5000040    0.00000       Uiso       1.00
       C64          C  0.2159970  0.5744520  0.5000040    0.00000       Uiso       1.00
       C65          C  0.8291960  0.3821160  0.5000040    0.00000       Uiso       1.00
       C66          C  0.7843920  0.3597030  0.5000040    0.00000       Uiso       1.00
       H67          H  0.5190690  0.3633590  0.5000040    0.00000       Uiso       1.00
       H68          H  0.5558620  0.3263090  0.5000040    0.00000       Uiso       1.00
       H69          H  0.3652910  0.5203060  0.5000040    0.00000       Uiso       1.00
       H70          H  0.3275890  0.5564470  0.5000040    0.00000       Uiso       1.00
       H71          H  0.6366410  0.1557100  0.5000040    0.00000       Uiso       1.00
       H72          H  0.6736910  0.2295530  0.5000040    0.00000       Uiso       1.00
       H73          H  0.4796930  0.8449840  0.5000040    0.00000       Uiso       1.00
       H74          H  0.4435530  0.7711410  0.5000040    0.00000       Uiso       1.00
       H75          H  0.8442900  0.4809310  0.5000040    0.00000       Uiso       1.00
       H76          H  0.7704460  0.4441380  0.5000040    0.00000       Uiso       1.00
       H77          H  0.1550160  0.6347090  0.5000040    0.00000       Uiso       1.00
       H78          H  0.2288590  0.6724110  0.5000040    0.00000       Uiso       1.00
       H79          H  0.4809310  0.6366410  0.5000040    0.00000       Uiso       1.00
       H80          H  0.4441380  0.6736910  0.5000040    0.00000       Uiso       1.00
       H81          H  0.6347090  0.4796930  0.5000040    0.00000       Uiso       1.00
       H82          H  0.6724110  0.4435530  0.5000040    0.00000       Uiso       1.00
       H83          H  0.3633590  0.8442900  0.5000040    0.00000       Uiso       1.00
       H84          H  0.3263090  0.7704460  0.5000040    0.00000       Uiso       1.00
       H85          H  0.5203060  0.1550160  0.5000040    0.00000       Uiso       1.00
       H86          H  0.5564470  0.2288590  0.5000040    0.00000       Uiso       1.00
       H87          H  0.1557100  0.5190690  0.5000040    0.00000       Uiso       1.00
       H88          H  0.2295530  0.5558620  0.5000040    0.00000       Uiso       1.00
       H89          H  0.8449840  0.3652910  0.5000040    0.00000       Uiso       1.00
       H90          H  0.7711410  0.3275890  0.5000040    0.00000       Uiso       1.00
       C91          C  0.6435900  0.2867630  0.5000040    0.00000       Uiso       1.00
       C92          C  0.7132370  0.3568270  0.5000040    0.00000       Uiso       1.00
       C93          C  0.6431720  0.3564100  0.5000040    0.00000       Uiso       1.00
       C94          C  0.5746380  0.1476400  0.5000040    0.00000       Uiso       1.00
       C95          C  0.8523600  0.4269980  0.5000040    0.00000       Uiso       1.00
       C96          C  0.5730020  0.4253620  0.5000040    0.00000       Uiso       1.00
       C97          C  0.6207430  0.2406530  0.5000040    0.00000       Uiso       1.00
       C98          C  0.7593460  0.3800890  0.5000040    0.00000       Uiso       1.00
       C99          C  0.6199110  0.3792570  0.5000040    0.00000       Uiso       1.00
      C100          C  0.6887620  0.3116300  0.5000040    0.00000       Uiso       1.00
      C101          C  0.6883700  0.3771320  0.5000040    0.00000       Uiso       1.00
      C102          C  0.6228680  0.3112370  0.5000040    0.00000       Uiso       1.00
      C103          C  0.3564100  0.7132370  0.5000040    0.00000       Uiso       1.00
      C104          C  0.2867630  0.6431720  0.5000040    0.00000       Uiso       1.00
      C105          C  0.3568270  0.6435900  0.5000040    0.00000       Uiso       1.00
      C106          C  0.4253620  0.8523600  0.5000040    0.00000       Uiso       1.00
      C107          C  0.1476400  0.5730020  0.5000040    0.00000       Uiso       1.00
      C108          C  0.4269980  0.5746380  0.5000040    0.00000       Uiso       1.00
      C109          C  0.3792570  0.7593460  0.5000040    0.00000       Uiso       1.00
      C110          C  0.2406530  0.6199100  0.5000040    0.00000       Uiso       1.00
      C111          C  0.3800890  0.6207430  0.5000040    0.00000       Uiso       1.00
      C112          C  0.3112370  0.6883700  0.5000040    0.00000       Uiso       1.00
      C113          C  0.3116300  0.6228670  0.5000040    0.00000       Uiso       1.00
      C114          C  0.3771320  0.6887620  0.5000040    0.00000       Uiso       1.00
      H115          H  0.5910520  0.2951880  0.5000040    0.00000       Uiso       1.00
      H116          H  0.7048120  0.2958640  0.5000040    0.00000       Uiso       1.00
      H117          H  0.7041350  0.4089480  0.5000040    0.00000       Uiso       1.00
      H118          H  0.4089480  0.7048120  0.5000040    0.00000       Uiso       1.00
      H119          H  0.2951880  0.7041350  0.5000040    0.00000       Uiso       1.00
      H120          H  0.2958640  0.5910520  0.5000040    0.00000       Uiso       1.00
