data_Py-2PE-COF
_audit_creation_date              0000-00-00
_audit_creation_method            'LanYouShi'
_symmetry_space_group_name_H-M    'P1'
_cell_length_a                    42.2601013
_cell_length_b                    45.0125999
_cell_length_c                    3.9075999
_cell_angle_alpha                 90.0000000
_cell_angle_beta                  90.0000000
_cell_angle_gamma                 90.0000000
loop_
_atom_site_label
_atom_site_type_symbol
_atom_site_fract_x
_atom_site_fract_y
_atom_site_fract_z
_atom_site_U_iso_or_equiv
_atom_site_adp_type
_atom_site_occupancy
        C1          C  0.5341300  0.5273520 -0.0774190    0.00000       Uiso       1.00
        C2          C  0.4834840  0.5533740 -0.1433340    0.00000       Uiso       1.00
        C3          C  0.4324420  0.5277080 -0.0227980    0.00000       Uiso       1.00
        C4          C  0.4130250  0.5536360 -0.0066880    0.00000       Uiso       1.00
        C5          C  0.3830100  0.5543930 -0.1703440    0.00000       Uiso       1.00
        C6          C  0.3632310  0.5794670 -0.1516070    0.00000       Uiso       1.00
        C7          C  0.3730410  0.6052250  0.0231620    0.00000       Uiso       1.00
        C8          C  0.4028580  0.6049820  0.1862990    0.00000       Uiso       1.00
        C9          C  0.4220120  0.5794450  0.1767230    0.00000       Uiso       1.00
       H10          H  0.4727410  0.5731860 -0.1906030    0.00000       Uiso       1.00
       H11          H  0.3751440  0.5365780 -0.3090370    0.00000       Uiso       1.00
       H12          H  0.3416620  0.5788740 -0.2708630    0.00000       Uiso       1.00
       H13          H  0.4108200  0.6230980  0.3177970    0.00000       Uiso       1.00
       H14          H  0.4427580  0.5799730  0.3091720    0.00000       Uiso       1.00
       C15          C  0.0341300  0.0273520  0.1411710    0.00000       Uiso       1.00
       C16          C  0.9834840  0.0533740  0.2070860    0.00000       Uiso       1.00
       C17          C  0.9324410  0.0277080  0.0865510    0.00000       Uiso       1.00
       C18          C  0.9130240  0.0536360  0.0704400    0.00000       Uiso       1.00
       C19          C  0.9220120  0.0794450 -0.1129720    0.00000       Uiso       1.00
       C20          C  0.9028581  0.1049820 -0.1225480    0.00000       Uiso       1.00
       C21          C  0.8730400  0.1052250  0.0405890    0.00000       Uiso       1.00
       C22          C  0.8632300  0.0794670  0.2153580    0.00000       Uiso       1.00
       C23          C  0.8830100  0.0543930  0.2340950    0.00000       Uiso       1.00
       H24          H  0.9727411  0.0731860  0.2543540    0.00000       Uiso       1.00
       H25          H  0.9427580  0.0799730 -0.2454210    0.00000       Uiso       1.00
       H26          H  0.9108199  0.1230980 -0.2540470    0.00000       Uiso       1.00
       H27          H  0.8416620  0.0788740  0.3346130    0.00000       Uiso       1.00
       H28          H  0.8751440  0.0365780  0.3727890    0.00000       Uiso       1.00
       C29          C  0.1689730  0.8226150 -0.0576920    0.00000       Uiso       1.00
       C30          C  0.1639810  0.7931500 -0.1724930    0.00000       Uiso       1.00
       C31          C  0.1879540  0.7715780 -0.1464610    0.00000       Uiso       1.00
       C32          C  0.2176070  0.7790810 -0.0051030    0.00000       Uiso       1.00
       C33          C  0.2229680  0.8083709  0.1093180    0.00000       Uiso       1.00
       C34          C  0.1988980  0.8298450  0.0831970    0.00000       Uiso       1.00
       C35          C  0.2398150  0.7591451  0.0201350    0.00000       Uiso       1.00
       C36          C  0.2601840  0.7408550  0.0436140    0.00000       Uiso       1.00
       C37          C  0.2823930  0.7209190  0.0688520    0.00000       Uiso       1.00
       C38          C  0.3120450  0.7284219  0.2102100    0.00000       Uiso       1.00
       C39          C  0.3360180  0.7068500  0.2362420    0.00000       Uiso       1.00
       C40          C  0.3310260  0.6773850  0.1214410    0.00000       Uiso       1.00
       C41          C  0.3011020  0.6701550 -0.0194490    0.00000       Uiso       1.00
       C42          C  0.2770310  0.6916290 -0.0455710    0.00000       Uiso       1.00
       H43          H  0.1427290  0.7870230 -0.2766940    0.00000       Uiso       1.00
       H44          H  0.1834640  0.7504660 -0.2320210    0.00000       Uiso       1.00
       H45          H  0.2443030  0.8143970  0.2130750    0.00000       Uiso       1.00
       H46          H  0.2035850  0.8508610  0.1690250    0.00000       Uiso       1.00
       H47          H  0.3165350  0.7495340  0.2957700    0.00000       Uiso       1.00
       H48          H  0.3572700  0.7129770  0.3404430    0.00000       Uiso       1.00
       H49          H  0.2964150  0.6491400 -0.1052770    0.00000       Uiso       1.00
       H50          H  0.2556960  0.6856030 -0.1493280    0.00000       Uiso       1.00
       C51          C  0.1444320  0.8436780 -0.0860440    0.00000       Uiso       1.00
       N52          N  0.1472690  0.8714880  0.0414850    0.00000       Uiso       1.00
       N53          N  0.3527300  0.6285120  0.0222640    0.00000       Uiso       1.00
       C54          C  0.3555680  0.6563230  0.1497930    0.00000       Uiso       1.00
       H55          H  0.8761430  0.1623710 -0.2047790    0.00000       Uiso       1.00
       H56          H  0.6238560  0.3376290  0.2685280    0.00000       Uiso       1.00
       C57          C  0.4658690  0.4726480 -0.0774190    0.00000       Uiso       1.00
       C58          C  0.5165150  0.4466260 -0.1433340    0.00000       Uiso       1.00
       C59          C  0.5675580  0.4722920 -0.0227980    0.00000       Uiso       1.00
       C60          C  0.5869750  0.4463640 -0.0066880    0.00000       Uiso       1.00
       C61          C  0.6169890  0.4456070 -0.1703440    0.00000       Uiso       1.00
       C62          C  0.6367680  0.4205330 -0.1516070    0.00000       Uiso       1.00
       C63          C  0.6269590  0.3947750  0.0231620    0.00000       Uiso       1.00
       C64          C  0.5971410  0.3950180  0.1862990    0.00000       Uiso       1.00
       C65          C  0.5779870  0.4205550  0.1767230    0.00000       Uiso       1.00
       H66          H  0.5272580  0.4268140 -0.1906030    0.00000       Uiso       1.00
       H67          H  0.6248550  0.4634220 -0.3090370    0.00000       Uiso       1.00
       H68          H  0.6583370  0.4211260 -0.2708630    0.00000       Uiso       1.00
       H69          H  0.5891790  0.3769020  0.3177970    0.00000       Uiso       1.00
       H70          H  0.5572410  0.4200270  0.3091720    0.00000       Uiso       1.00
       C71          C  0.9658690  0.9726481  0.1411710    0.00000       Uiso       1.00
       C72          C  0.0165150  0.9466259  0.2070860    0.00000       Uiso       1.00
       C73          C  0.0675580  0.9722920  0.0865510    0.00000       Uiso       1.00
       C74          C  0.0869750  0.9463640  0.0704400    0.00000       Uiso       1.00
       C75          C  0.0779880  0.9205560 -0.1129720    0.00000       Uiso       1.00
       C76          C  0.0971410  0.8950190 -0.1225480    0.00000       Uiso       1.00
       C77          C  0.1269590  0.8947759  0.0405890    0.00000       Uiso       1.00
       C78          C  0.1367690  0.9205330  0.2153580    0.00000       Uiso       1.00
       C79          C  0.1169890  0.9456069  0.2340950    0.00000       Uiso       1.00
       H80          H  0.0272590  0.9268140  0.2543540    0.00000       Uiso       1.00
       H81          H  0.0572410  0.9200270 -0.2454210    0.00000       Uiso       1.00
       H82          H  0.0891790  0.8769020 -0.2540470    0.00000       Uiso       1.00
       H83          H  0.1583370  0.9211260  0.3346130    0.00000       Uiso       1.00
       H84          H  0.1248560  0.9634221  0.3727890    0.00000       Uiso       1.00
       C85          C  0.8310260  0.1773850 -0.0576920    0.00000       Uiso       1.00
       C86          C  0.8360181  0.2068500 -0.1724930    0.00000       Uiso       1.00
       C87          C  0.8120450  0.2284220 -0.1464610    0.00000       Uiso       1.00
       C88          C  0.7823930  0.2209190 -0.0051030    0.00000       Uiso       1.00
       C89          C  0.7770310  0.1916290  0.1093180    0.00000       Uiso       1.00
       C90          C  0.8011010  0.1701560  0.0831970    0.00000       Uiso       1.00
       C91          C  0.7601840  0.2408550  0.0201350    0.00000       Uiso       1.00
       C92          C  0.7398150  0.2591450  0.0436140    0.00000       Uiso       1.00
       C93          C  0.7176070  0.2790820  0.0688520    0.00000       Uiso       1.00
       C94          C  0.6879540  0.2715780  0.2102100    0.00000       Uiso       1.00
       C95          C  0.6639810  0.2931500  0.2362420    0.00000       Uiso       1.00
       C96          C  0.6689730  0.3226150  0.1214410    0.00000       Uiso       1.00
       C97          C  0.6988980  0.3298450 -0.0194490    0.00000       Uiso       1.00
       C98          C  0.7229680  0.3083710 -0.0455710    0.00000       Uiso       1.00
       H99          H  0.8572700  0.2129770 -0.2766940    0.00000       Uiso       1.00
      H100          H  0.8165350  0.2495340 -0.2320210    0.00000       Uiso       1.00
      H101          H  0.7556960  0.1856030  0.2130750    0.00000       Uiso       1.00
      H102          H  0.7964140  0.1491400  0.1690250    0.00000       Uiso       1.00
      H103          H  0.6834640  0.2504660  0.2957700    0.00000       Uiso       1.00
      H104          H  0.6427290  0.2870230  0.3404430    0.00000       Uiso       1.00
      H105          H  0.7035840  0.3508610 -0.1052770    0.00000       Uiso       1.00
      H106          H  0.7443030  0.3143980 -0.1493280    0.00000       Uiso       1.00
      C107          C  0.8555669  0.1563230 -0.0860440    0.00000       Uiso       1.00
      N108          N  0.8527300  0.1285120  0.0414850    0.00000       Uiso       1.00
      N109          N  0.6472690  0.3714880  0.0222640    0.00000       Uiso       1.00
      C110          C  0.6444320  0.3436780  0.1497930    0.00000       Uiso       1.00
      H111          H  0.1238560  0.8376290 -0.2047790    0.00000       Uiso       1.00
      H112          H  0.3761430  0.6623720  0.2685280    0.00000       Uiso       1.00
      C113          C  0.5341300  0.4726480 -0.0774190    0.00000       Uiso       1.00
      C114          C  0.4834840  0.4466260 -0.1433340    0.00000       Uiso       1.00
      C115          C  0.4324420  0.4722920 -0.0227980    0.00000       Uiso       1.00
      C116          C  0.4130250  0.4463640 -0.0066880    0.00000       Uiso       1.00
      C117          C  0.3830100  0.4456070 -0.1703440    0.00000       Uiso       1.00
      C118          C  0.3632310  0.4205330 -0.1516070    0.00000       Uiso       1.00
      C119          C  0.3730410  0.3947750  0.0231620    0.00000       Uiso       1.00
      C120          C  0.4028580  0.3950180  0.1862990    0.00000       Uiso       1.00
      C121          C  0.4220120  0.4205550  0.1767230    0.00000       Uiso       1.00
      H122          H  0.4727410  0.4268140 -0.1906030    0.00000       Uiso       1.00
      H123          H  0.3751440  0.4634220 -0.3090370    0.00000       Uiso       1.00
      H124          H  0.3416620  0.4211260 -0.2708630    0.00000       Uiso       1.00
      H125          H  0.4108200  0.3769020  0.3177970    0.00000       Uiso       1.00
      H126          H  0.4427580  0.4200270  0.3091720    0.00000       Uiso       1.00
      C127          C  0.0341300  0.9726481  0.1411710    0.00000       Uiso       1.00
      C128          C  0.9834840  0.9466259  0.2070860    0.00000       Uiso       1.00
      C129          C  0.9324410  0.9722920  0.0865510    0.00000       Uiso       1.00
      C130          C  0.9130240  0.9463640  0.0704400    0.00000       Uiso       1.00
      C131          C  0.9220120  0.9205560 -0.1129720    0.00000       Uiso       1.00
      C132          C  0.9028581  0.8950190 -0.1225480    0.00000       Uiso       1.00
      C133          C  0.8730400  0.8947759  0.0405890    0.00000       Uiso       1.00
      C134          C  0.8632300  0.9205330  0.2153580    0.00000       Uiso       1.00
      C135          C  0.8830100  0.9456069  0.2340950    0.00000       Uiso       1.00
      H136          H  0.9727411  0.9268140  0.2543540    0.00000       Uiso       1.00
      H137          H  0.9427580  0.9200270 -0.2454210    0.00000       Uiso       1.00
      H138          H  0.9108199  0.8769020 -0.2540470    0.00000       Uiso       1.00
      H139          H  0.8416620  0.9211260  0.3346130    0.00000       Uiso       1.00
      H140          H  0.8751440  0.9634221  0.3727890    0.00000       Uiso       1.00
      C141          C  0.1689730  0.1773850 -0.0576920    0.00000       Uiso       1.00
      C142          C  0.1639810  0.2068500 -0.1724930    0.00000       Uiso       1.00
      C143          C  0.1879540  0.2284220 -0.1464610    0.00000       Uiso       1.00
      C144          C  0.2176070  0.2209190 -0.0051030    0.00000       Uiso       1.00
      C145          C  0.2229680  0.1916290  0.1093180    0.00000       Uiso       1.00
      C146          C  0.1988980  0.1701560  0.0831970    0.00000       Uiso       1.00
      C147          C  0.2398150  0.2408550  0.0201350    0.00000       Uiso       1.00
      C148          C  0.2601840  0.2591450  0.0436140    0.00000       Uiso       1.00
      C149          C  0.2823930  0.2790820  0.0688520    0.00000       Uiso       1.00
      C150          C  0.3120450  0.2715780  0.2102100    0.00000       Uiso       1.00
      C151          C  0.3360180  0.2931500  0.2362420    0.00000       Uiso       1.00
      C152          C  0.3310260  0.3226150  0.1214410    0.00000       Uiso       1.00
      C153          C  0.3011020  0.3298450 -0.0194490    0.00000       Uiso       1.00
      C154          C  0.2770310  0.3083710 -0.0455710    0.00000       Uiso       1.00
      H155          H  0.1427290  0.2129770 -0.2766940    0.00000       Uiso       1.00
      H156          H  0.1834640  0.2495340 -0.2320210    0.00000       Uiso       1.00
      H157          H  0.2443030  0.1856030  0.2130750    0.00000       Uiso       1.00
      H158          H  0.2035850  0.1491400  0.1690250    0.00000       Uiso       1.00
      H159          H  0.3165350  0.2504660  0.2957700    0.00000       Uiso       1.00
      H160          H  0.3572700  0.2870230  0.3404430    0.00000       Uiso       1.00
      H161          H  0.2964150  0.3508610 -0.1052770    0.00000       Uiso       1.00
      H162          H  0.2556960  0.3143980 -0.1493280    0.00000       Uiso       1.00
      C163          C  0.1444320  0.1563230 -0.0860440    0.00000       Uiso       1.00
      N164          N  0.1472690  0.1285120  0.0414850    0.00000       Uiso       1.00
      N165          N  0.3527300  0.3714880  0.0222640    0.00000       Uiso       1.00
      C166          C  0.3555680  0.3436780  0.1497930    0.00000       Uiso       1.00
      H167          H  0.8761430  0.8376290 -0.2047790    0.00000       Uiso       1.00
      H168          H  0.6238560  0.6623720  0.2685280    0.00000       Uiso       1.00
      C169          C  0.4658690  0.5273520 -0.0774190    0.00000       Uiso       1.00
      C170          C  0.5165150  0.5533740 -0.1433340    0.00000       Uiso       1.00
      C171          C  0.5675580  0.5277080 -0.0227980    0.00000       Uiso       1.00
      C172          C  0.5869750  0.5536360 -0.0066880    0.00000       Uiso       1.00
      C173          C  0.6169890  0.5543930 -0.1703440    0.00000       Uiso       1.00
      C174          C  0.6367680  0.5794670 -0.1516070    0.00000       Uiso       1.00
      C175          C  0.6269590  0.6052250  0.0231620    0.00000       Uiso       1.00
      C176          C  0.5971410  0.6049820  0.1862990    0.00000       Uiso       1.00
      C177          C  0.5779870  0.5794450  0.1767230    0.00000       Uiso       1.00
      H178          H  0.5272580  0.5731860 -0.1906030    0.00000       Uiso       1.00
      H179          H  0.6248550  0.5365780 -0.3090370    0.00000       Uiso       1.00
      H180          H  0.6583370  0.5788740 -0.2708630    0.00000       Uiso       1.00
      H181          H  0.5891790  0.6230980  0.3177970    0.00000       Uiso       1.00
      H182          H  0.5572410  0.5799730  0.3091720    0.00000       Uiso       1.00
      C183          C  0.9658690  0.0273520  0.1411710    0.00000       Uiso       1.00
      C184          C  0.0165150  0.0533740  0.2070860    0.00000       Uiso       1.00
      C185          C  0.0675580  0.0277080  0.0865510    0.00000       Uiso       1.00
      C186          C  0.0869750  0.0536360  0.0704400    0.00000       Uiso       1.00
      C187          C  0.0779880  0.0794450 -0.1129720    0.00000       Uiso       1.00
      C188          C  0.0971410  0.1049820 -0.1225480    0.00000       Uiso       1.00
      C189          C  0.1269590  0.1052250  0.0405890    0.00000       Uiso       1.00
      C190          C  0.1367690  0.0794670  0.2153580    0.00000       Uiso       1.00
      C191          C  0.1169890  0.0543930  0.2340950    0.00000       Uiso       1.00
      H192          H  0.0272590  0.0731860  0.2543540    0.00000       Uiso       1.00
      H193          H  0.0572410  0.0799730 -0.2454210    0.00000       Uiso       1.00
      H194          H  0.0891790  0.1230980 -0.2540470    0.00000       Uiso       1.00
      H195          H  0.1583370  0.0788740  0.3346130    0.00000       Uiso       1.00
      H196          H  0.1248560  0.0365780  0.3727890    0.00000       Uiso       1.00
      C197          C  0.8310260  0.8226150 -0.0576920    0.00000       Uiso       1.00
      C198          C  0.8360181  0.7931500 -0.1724930    0.00000       Uiso       1.00
      C199          C  0.8120450  0.7715780 -0.1464610    0.00000       Uiso       1.00
      C200          C  0.7823930  0.7790810 -0.0051030    0.00000       Uiso       1.00
      C201          C  0.7770310  0.8083709  0.1093180    0.00000       Uiso       1.00
      C202          C  0.8011010  0.8298450  0.0831970    0.00000       Uiso       1.00
      C203          C  0.7601840  0.7591451  0.0201350    0.00000       Uiso       1.00
      C204          C  0.7398150  0.7408550  0.0436140    0.00000       Uiso       1.00
      C205          C  0.7176070  0.7209190  0.0688520    0.00000       Uiso       1.00
      C206          C  0.6879540  0.7284219  0.2102100    0.00000       Uiso       1.00
      C207          C  0.6639810  0.7068500  0.2362420    0.00000       Uiso       1.00
      C208          C  0.6689730  0.6773850  0.1214410    0.00000       Uiso       1.00
      C209          C  0.6988980  0.6701550 -0.0194490    0.00000       Uiso       1.00
      C210          C  0.7229680  0.6916290 -0.0455710    0.00000       Uiso       1.00
      H211          H  0.8572700  0.7870230 -0.2766940    0.00000       Uiso       1.00
      H212          H  0.8165350  0.7504660 -0.2320210    0.00000       Uiso       1.00
      H213          H  0.7556960  0.8143970  0.2130750    0.00000       Uiso       1.00
      H214          H  0.7964140  0.8508610  0.1690250    0.00000       Uiso       1.00
      H215          H  0.6834640  0.7495340  0.2957700    0.00000       Uiso       1.00
      H216          H  0.6427290  0.7129770  0.3404430    0.00000       Uiso       1.00
      H217          H  0.7035840  0.6491400 -0.1052770    0.00000       Uiso       1.00
      H218          H  0.7443030  0.6856030 -0.1493280    0.00000       Uiso       1.00
      C219          C  0.8555669  0.8436780 -0.0860440    0.00000       Uiso       1.00
      N220          N  0.8527300  0.8714880  0.0414850    0.00000       Uiso       1.00
      N221          N  0.6472690  0.6285120  0.0222640    0.00000       Uiso       1.00
      C222          C  0.6444320  0.6563230  0.1497930    0.00000       Uiso       1.00
      H223          H  0.1238560  0.1623710 -0.2047790    0.00000       Uiso       1.00
      H224          H  0.3761430  0.3376290  0.2685280    0.00000       Uiso       1.00
      C225          C  0.4173030  0.5000000  0.0239580    0.00000       Uiso       1.00
      C226          C  0.5170130  0.5000000 -0.0748750    0.00000       Uiso       1.00
      H227          H  0.3939110  0.5000000  0.0936820    0.00000       Uiso       1.00
      C228          C  0.5826960  0.5000000  0.0239580    0.00000       Uiso       1.00
      C229          C  0.4829870  0.5000000 -0.0748750    0.00000       Uiso       1.00
      H230          H  0.6060880  0.5000000  0.0936820    0.00000       Uiso       1.00
      C231          C  0.9173021  0.0000000  0.0397940    0.00000       Uiso       1.00
      C232          C  0.0170130  0.0000000  0.1386280    0.00000       Uiso       1.00
      H233          H  0.8939109  0.0000000 -0.0299290    0.00000       Uiso       1.00
      C234          C  0.0826970  0.0000000  0.0397940    0.00000       Uiso       1.00
      C235          C  0.9829860  0.0000000  0.1386280    0.00000       Uiso       1.00
      H236          H  0.1060880  0.0000000 -0.0299290    0.00000       Uiso       1.00
