data_Py-3PE-BTD-COF
_audit_creation_date              0000-00-00
_audit_creation_method            'LanYouShi'
_symmetry_space_group_name_H-M    'P1'
_cell_length_a                    51.6403999
_cell_length_b                    54.2242012
_cell_length_c                    3.8403001
_cell_angle_alpha                 90.0000000
_cell_angle_beta                  90.0000000
_cell_angle_gamma                 90.0000000
loop_
_atom_site_label
_atom_site_type_symbol
_atom_site_fract_x
_atom_site_fract_y
_atom_site_fract_z
_atom_site_U_iso_or_equiv
_atom_site_adp_type
_atom_site_occupancy
        C1          C  0.5279470  0.5227020  0.1345230    0.00000       Uiso       1.00
        C2          C  0.4864860  0.5442580  0.0654520    0.00000       Uiso       1.00
        C3          C  0.4446960  0.5230150  0.1904640    0.00000       Uiso       1.00
        C4          C  0.4286890  0.5444960  0.2025380    0.00000       Uiso       1.00
        C5          C  0.4040040  0.5447160  0.0387550    0.00000       Uiso       1.00
        C6          C  0.3877140  0.5654760  0.0514700    0.00000       Uiso       1.00
        C7          C  0.3957600  0.5872500  0.2192220    0.00000       Uiso       1.00
        C8          C  0.4202290  0.5874680  0.3832680    0.00000       Uiso       1.00
        C9          C  0.4359880  0.5663100  0.3805760    0.00000       Uiso       1.00
       H10          H  0.4777270  0.5606800  0.0155120    0.00000       Uiso       1.00
       H11          H  0.3975380  0.5296600 -0.0962960    0.00000       Uiso       1.00
       H12          H  0.3699960  0.5646620 -0.0677390    0.00000       Uiso       1.00
       H13          H  0.4267340  0.6028020  0.5103550    0.00000       Uiso       1.00
       H14          H  0.4529950  0.5670950  0.5141430    0.00000       Uiso       1.00
       C15          C  0.0279500  0.0227000 -0.0816330    0.00000       Uiso       1.00
       C16          C  0.9864870  0.0442530 -0.0125670    0.00000       Uiso       1.00
       C17          C  0.9446900  0.0230140 -0.1374760    0.00000       Uiso       1.00
       C18          C  0.9286970  0.0445050 -0.1496550    0.00000       Uiso       1.00
       C19          C  0.9360290  0.0663050 -0.3277500    0.00000       Uiso       1.00
       C20          C  0.9203340  0.0875030 -0.3298910    0.00000       Uiso       1.00
       C21          C  0.8958860  0.0873490 -0.1652290    0.00000       Uiso       1.00
       C22          C  0.8877831  0.0655730  0.0020200    0.00000       Uiso       1.00
       C23          C  0.9040140  0.0447670  0.0141680    0.00000       Uiso       1.00
       H24          H  0.9777330  0.0606770  0.0373920    0.00000       Uiso       1.00
       H25          H  0.9530250  0.0670550 -0.4616020    0.00000       Uiso       1.00
       H26          H  0.9268790  0.1028220 -0.4569200    0.00000       Uiso       1.00
       H27          H  0.8700700  0.0647960  0.1214370    0.00000       Uiso       1.00
       H28          H  0.8975140  0.0297140  0.1489890    0.00000       Uiso       1.00
       C29          C  0.1380750  0.8522920 -0.2280650    0.00000       Uiso       1.00
       C30          C  0.1336690  0.8274310 -0.3239890    0.00000       Uiso       1.00
       C31          C  0.1530350  0.8094280 -0.2815320    0.00000       Uiso       1.00
       C32          C  0.1773660  0.8159680 -0.1425780    0.00000       Uiso       1.00
       C33          C  0.1821170  0.8406990 -0.0484420    0.00000       Uiso       1.00
       C34          C  0.1626670  0.8586180 -0.0908190    0.00000       Uiso       1.00
       C35          C  0.1952440  0.7993170 -0.0995420    0.00000       Uiso       1.00
       C36          C  0.2116520  0.7840720 -0.0580050    0.00000       Uiso       1.00
       C37          C  0.2296000  0.7675370 -0.0119280    0.00000       Uiso       1.00
       C38          C  0.2540180  0.7740560  0.1248320    0.00000       Uiso       1.00
       C39          C  0.2733260  0.7563660  0.1717370    0.00000       Uiso       1.00
       C40          C  0.2689700  0.7314310  0.0846390    0.00000       Uiso       1.00
       C41          C  0.2445310  0.7246960 -0.0514260    0.00000       Uiso       1.00
       C42          C  0.2250280  0.7425900 -0.0995190    0.00000       Uiso       1.00
       C43          C  0.2869850  0.7149200  0.1277050    0.00000       Uiso       1.00
       C44          C  0.3035580  0.6997990  0.1664090    0.00000       Uiso       1.00
       C45          C  0.3216500  0.6833210  0.2065380    0.00000       Uiso       1.00
       C46          C  0.3459540  0.6900460  0.3446510    0.00000       Uiso       1.00
       C47          C  0.3655340  0.6722190  0.3844050    0.00000       Uiso       1.00
       C48          C  0.3613710  0.6473570  0.2866130    0.00000       Uiso       1.00
       C49          C  0.3368130  0.6408510  0.1499290    0.00000       Uiso       1.00
       C50          C  0.3171540  0.6585900  0.1102180    0.00000       Uiso       1.00
       N51          N  0.2950270  0.7662801  0.3028620    0.00000       Uiso       1.00
       S52          S  0.2927050  0.7969130  0.3714870    0.00000       Uiso       1.00
       N53          N  0.2619710  0.7965440  0.2232860    0.00000       Uiso       1.00
       H54          H  0.1162090  0.8221089 -0.4255570    0.00000       Uiso       1.00
       H55          H  0.1491180  0.7916000 -0.3529810    0.00000       Uiso       1.00
       H56          H  0.1996500  0.8459381  0.0525710    0.00000       Uiso       1.00
       H57          H  0.1667500  0.8763680 -0.0191580    0.00000       Uiso       1.00
       H58          H  0.2406470  0.7067640 -0.1176910    0.00000       Uiso       1.00
       H59          H  0.2075360  0.7371560 -0.1995800    0.00000       Uiso       1.00
       H60          H  0.3496910  0.7078810  0.4175120    0.00000       Uiso       1.00
       H61          H  0.3829660  0.6776690  0.4855040    0.00000       Uiso       1.00
       H62          H  0.3329020  0.6230959  0.0768090    0.00000       Uiso       1.00
       H63          H  0.2996530  0.6532180  0.0096090    0.00000       Uiso       1.00
       C64          C  0.1181650  0.8698261 -0.2696890    0.00000       Uiso       1.00
       N65          N  0.1206570  0.8932760 -0.1543860    0.00000       Uiso       1.00
       N66          N  0.3791150  0.6065450  0.2097710    0.00000       Uiso       1.00
       C67          C  0.3814600  0.6299820  0.3261140    0.00000       Uiso       1.00
       H68          H  0.8987140  0.1354620 -0.3871760    0.00000       Uiso       1.00
       H69          H  0.6016740  0.3646360  0.4430670    0.00000       Uiso       1.00
       C70          C  0.4720540  0.4772970  0.1345230    0.00000       Uiso       1.00
       C71          C  0.5135140  0.4557420  0.0654520    0.00000       Uiso       1.00
       C72          C  0.5553040  0.4769850  0.1904640    0.00000       Uiso       1.00
       C73          C  0.5713120  0.4555040  0.2025380    0.00000       Uiso       1.00
       C74          C  0.5959960  0.4552840  0.0387550    0.00000       Uiso       1.00
       C75          C  0.6122860  0.4345240  0.0514700    0.00000       Uiso       1.00
       C76          C  0.6042410  0.4127490  0.2192220    0.00000       Uiso       1.00
       C77          C  0.5797710  0.4125320  0.3832680    0.00000       Uiso       1.00
       C78          C  0.5640130  0.4336900  0.3805760    0.00000       Uiso       1.00
       H79          H  0.5222740  0.4393200  0.0155120    0.00000       Uiso       1.00
       H80          H  0.6024620  0.4703400 -0.0962960    0.00000       Uiso       1.00
       H81          H  0.6300050  0.4353380 -0.0677390    0.00000       Uiso       1.00
       H82          H  0.5732660  0.3971980  0.5103550    0.00000       Uiso       1.00
       H83          H  0.5470050  0.4329050  0.5141430    0.00000       Uiso       1.00
       C84          C  0.9720500  0.9773000 -0.0816330    0.00000       Uiso       1.00
       C85          C  0.0135130  0.9557470 -0.0125670    0.00000       Uiso       1.00
       C86          C  0.0553100  0.9769860 -0.1374760    0.00000       Uiso       1.00
       C87          C  0.0713030  0.9554940 -0.1496550    0.00000       Uiso       1.00
       C88          C  0.0639710  0.9336950 -0.3277500    0.00000       Uiso       1.00
       C89          C  0.0796670  0.9124970 -0.3298910    0.00000       Uiso       1.00
       C90          C  0.1041140  0.9126510 -0.1652290    0.00000       Uiso       1.00
       C91          C  0.1122180  0.9344270  0.0020200    0.00000       Uiso       1.00
       C92          C  0.0959860  0.9552330  0.0141680    0.00000       Uiso       1.00
       H93          H  0.0222680  0.9393230  0.0373920    0.00000       Uiso       1.00
       H94          H  0.0469750  0.9329440 -0.4616020    0.00000       Uiso       1.00
       H95          H  0.0731220  0.8971770 -0.4569200    0.00000       Uiso       1.00
       H96          H  0.1299300  0.9352030  0.1214370    0.00000       Uiso       1.00
       H97          H  0.1024870  0.9702860  0.1489890    0.00000       Uiso       1.00
       C98          C  0.8619250  0.1477080 -0.2280650    0.00000       Uiso       1.00
       C99          C  0.8663310  0.1725680 -0.3239890    0.00000       Uiso       1.00
      C100          C  0.8469660  0.1905710 -0.2815320    0.00000       Uiso       1.00
      C101          C  0.8226340  0.1840320 -0.1425780    0.00000       Uiso       1.00
      C102          C  0.8178840  0.1593010 -0.0484420    0.00000       Uiso       1.00
      C103          C  0.8373330  0.1413820 -0.0908190    0.00000       Uiso       1.00
      C104          C  0.8047560  0.2006830 -0.0995420    0.00000       Uiso       1.00
      C105          C  0.7883480  0.2159280 -0.0580050    0.00000       Uiso       1.00
      C106          C  0.7704000  0.2324630 -0.0119280    0.00000       Uiso       1.00
      C107          C  0.7459820  0.2259440  0.1248320    0.00000       Uiso       1.00
      C108          C  0.7266740  0.2436330  0.1717370    0.00000       Uiso       1.00
      C109          C  0.7310310  0.2685690  0.0846390    0.00000       Uiso       1.00
      C110          C  0.7554690  0.2753040 -0.0514260    0.00000       Uiso       1.00
      C111          C  0.7749729  0.2574090 -0.0995190    0.00000       Uiso       1.00
      C112          C  0.7130150  0.2850800  0.1277050    0.00000       Uiso       1.00
      C113          C  0.6964430  0.3002010  0.1664090    0.00000       Uiso       1.00
      C114          C  0.6783510  0.3166790  0.2065380    0.00000       Uiso       1.00
      C115          C  0.6540460  0.3099540  0.3446510    0.00000       Uiso       1.00
      C116          C  0.6344670  0.3277800  0.3844050    0.00000       Uiso       1.00
      C117          C  0.6386290  0.3526430  0.2866130    0.00000       Uiso       1.00
      C118          C  0.6631880  0.3591480  0.1499290    0.00000       Uiso       1.00
      C119          C  0.6828460  0.3414100  0.1102180    0.00000       Uiso       1.00
      N120          N  0.7049740  0.2337200  0.3028620    0.00000       Uiso       1.00
      S121          S  0.7072950  0.2030870  0.3714870    0.00000       Uiso       1.00
      N122          N  0.7380300  0.2034560  0.2232860    0.00000       Uiso       1.00
      H123          H  0.8837920  0.1778900 -0.4255570    0.00000       Uiso       1.00
      H124          H  0.8508821  0.2084000 -0.3529810    0.00000       Uiso       1.00
      H125          H  0.8003510  0.1540610  0.0525710    0.00000       Uiso       1.00
      H126          H  0.8332510  0.1236320 -0.0191580    0.00000       Uiso       1.00
      H127          H  0.7593530  0.2932360 -0.1176910    0.00000       Uiso       1.00
      H128          H  0.7924641  0.2628440 -0.1995800    0.00000       Uiso       1.00
      H129          H  0.6503100  0.2921190  0.4175120    0.00000       Uiso       1.00
      H130          H  0.6170350  0.3223310  0.4855040    0.00000       Uiso       1.00
      H131          H  0.6670991  0.3769040  0.0768090    0.00000       Uiso       1.00
      H132          H  0.7003470  0.3467820  0.0096090    0.00000       Uiso       1.00
      C133          C  0.8818350  0.1301740 -0.2696890    0.00000       Uiso       1.00
      N134          N  0.8793430  0.1067240 -0.1543860    0.00000       Uiso       1.00
      N135          N  0.6208860  0.3934540  0.2097710    0.00000       Uiso       1.00
      C136          C  0.6185410  0.3700180  0.3261140    0.00000       Uiso       1.00
      H137          H  0.1012860  0.8645380 -0.3871760    0.00000       Uiso       1.00
      H138          H  0.3983270  0.6353630  0.4430670    0.00000       Uiso       1.00
      C139          C  0.5279470  0.4772970  0.1345230    0.00000       Uiso       1.00
      C140          C  0.4864860  0.4557420  0.0654520    0.00000       Uiso       1.00
      C141          C  0.4446960  0.4769850  0.1904640    0.00000       Uiso       1.00
      C142          C  0.4286890  0.4555040  0.2025380    0.00000       Uiso       1.00
      C143          C  0.4040040  0.4552840  0.0387550    0.00000       Uiso       1.00
      C144          C  0.3877140  0.4345240  0.0514700    0.00000       Uiso       1.00
      C145          C  0.3957600  0.4127490  0.2192220    0.00000       Uiso       1.00
      C146          C  0.4202290  0.4125320  0.3832680    0.00000       Uiso       1.00
      C147          C  0.4359880  0.4336900  0.3805760    0.00000       Uiso       1.00
      H148          H  0.4777270  0.4393200  0.0155120    0.00000       Uiso       1.00
      H149          H  0.3975380  0.4703400 -0.0962960    0.00000       Uiso       1.00
      H150          H  0.3699960  0.4353380 -0.0677390    0.00000       Uiso       1.00
      H151          H  0.4267340  0.3971980  0.5103550    0.00000       Uiso       1.00
      H152          H  0.4529950  0.4329050  0.5141430    0.00000       Uiso       1.00
      C153          C  0.0279500  0.9773000 -0.0816330    0.00000       Uiso       1.00
      C154          C  0.9864870  0.9557470 -0.0125670    0.00000       Uiso       1.00
      C155          C  0.9446900  0.9769860 -0.1374760    0.00000       Uiso       1.00
      C156          C  0.9286970  0.9554940 -0.1496550    0.00000       Uiso       1.00
      C157          C  0.9360290  0.9336950 -0.3277500    0.00000       Uiso       1.00
      C158          C  0.9203340  0.9124970 -0.3298910    0.00000       Uiso       1.00
      C159          C  0.8958860  0.9126510 -0.1652290    0.00000       Uiso       1.00
      C160          C  0.8877831  0.9344270  0.0020200    0.00000       Uiso       1.00
      C161          C  0.9040140  0.9552330  0.0141680    0.00000       Uiso       1.00
      H162          H  0.9777330  0.9393230  0.0373920    0.00000       Uiso       1.00
      H163          H  0.9530250  0.9329440 -0.4616020    0.00000       Uiso       1.00
      H164          H  0.9268790  0.8971770 -0.4569200    0.00000       Uiso       1.00
      H165          H  0.8700700  0.9352030  0.1214370    0.00000       Uiso       1.00
      H166          H  0.8975140  0.9702860  0.1489890    0.00000       Uiso       1.00
      C167          C  0.1380750  0.1477080 -0.2280650    0.00000       Uiso       1.00
      C168          C  0.1336690  0.1725680 -0.3239890    0.00000       Uiso       1.00
      C169          C  0.1530350  0.1905710 -0.2815320    0.00000       Uiso       1.00
      C170          C  0.1773660  0.1840320 -0.1425780    0.00000       Uiso       1.00
      C171          C  0.1821170  0.1593010 -0.0484420    0.00000       Uiso       1.00
      C172          C  0.1626670  0.1413820 -0.0908190    0.00000       Uiso       1.00
      C173          C  0.1952440  0.2006830 -0.0995420    0.00000       Uiso       1.00
      C174          C  0.2116520  0.2159280 -0.0580050    0.00000       Uiso       1.00
      C175          C  0.2296000  0.2324630 -0.0119280    0.00000       Uiso       1.00
      C176          C  0.2540180  0.2259440  0.1248320    0.00000       Uiso       1.00
      C177          C  0.2733260  0.2436330  0.1717370    0.00000       Uiso       1.00
      C178          C  0.2689700  0.2685690  0.0846390    0.00000       Uiso       1.00
      C179          C  0.2445310  0.2753040 -0.0514260    0.00000       Uiso       1.00
      C180          C  0.2250280  0.2574090 -0.0995190    0.00000       Uiso       1.00
      C181          C  0.2869850  0.2850800  0.1277050    0.00000       Uiso       1.00
      C182          C  0.3035580  0.3002010  0.1664090    0.00000       Uiso       1.00
      C183          C  0.3216500  0.3166790  0.2065380    0.00000       Uiso       1.00
      C184          C  0.3459540  0.3099540  0.3446510    0.00000       Uiso       1.00
      C185          C  0.3655340  0.3277800  0.3844050    0.00000       Uiso       1.00
      C186          C  0.3613710  0.3526430  0.2866130    0.00000       Uiso       1.00
      C187          C  0.3368130  0.3591480  0.1499290    0.00000       Uiso       1.00
      C188          C  0.3171540  0.3414100  0.1102180    0.00000       Uiso       1.00
      N189          N  0.2950270  0.2337200  0.3028620    0.00000       Uiso       1.00
      S190          S  0.2927050  0.2030870  0.3714870    0.00000       Uiso       1.00
      N191          N  0.2619710  0.2034560  0.2232860    0.00000       Uiso       1.00
      H192          H  0.1162090  0.1778900 -0.4255570    0.00000       Uiso       1.00
      H193          H  0.1491180  0.2084000 -0.3529810    0.00000       Uiso       1.00
      H194          H  0.1996500  0.1540610  0.0525710    0.00000       Uiso       1.00
      H195          H  0.1667500  0.1236320 -0.0191580    0.00000       Uiso       1.00
      H196          H  0.2406470  0.2932360 -0.1176910    0.00000       Uiso       1.00
      H197          H  0.2075360  0.2628440 -0.1995800    0.00000       Uiso       1.00
      H198          H  0.3496910  0.2921190  0.4175120    0.00000       Uiso       1.00
      H199          H  0.3829660  0.3223310  0.4855040    0.00000       Uiso       1.00
      H200          H  0.3329020  0.3769040  0.0768090    0.00000       Uiso       1.00
      H201          H  0.2996530  0.3467820  0.0096090    0.00000       Uiso       1.00
      C202          C  0.1181650  0.1301740 -0.2696890    0.00000       Uiso       1.00
      N203          N  0.1206570  0.1067240 -0.1543860    0.00000       Uiso       1.00
      N204          N  0.3791150  0.3934540  0.2097710    0.00000       Uiso       1.00
      C205          C  0.3814600  0.3700180  0.3261140    0.00000       Uiso       1.00
      H206          H  0.8987140  0.8645380 -0.3871760    0.00000       Uiso       1.00
      H207          H  0.6016740  0.6353630  0.4430670    0.00000       Uiso       1.00
      C208          C  0.4720540  0.5227020  0.1345230    0.00000       Uiso       1.00
      C209          C  0.5135140  0.5442580  0.0654520    0.00000       Uiso       1.00
      C210          C  0.5553040  0.5230150  0.1904640    0.00000       Uiso       1.00
      C211          C  0.5713120  0.5444960  0.2025380    0.00000       Uiso       1.00
      C212          C  0.5959960  0.5447160  0.0387550    0.00000       Uiso       1.00
      C213          C  0.6122860  0.5654760  0.0514700    0.00000       Uiso       1.00
      C214          C  0.6042410  0.5872500  0.2192220    0.00000       Uiso       1.00
      C215          C  0.5797710  0.5874680  0.3832680    0.00000       Uiso       1.00
      C216          C  0.5640130  0.5663100  0.3805760    0.00000       Uiso       1.00
      H217          H  0.5222740  0.5606800  0.0155120    0.00000       Uiso       1.00
      H218          H  0.6024620  0.5296600 -0.0962960    0.00000       Uiso       1.00
      H219          H  0.6300050  0.5646620 -0.0677390    0.00000       Uiso       1.00
      H220          H  0.5732660  0.6028020  0.5103550    0.00000       Uiso       1.00
      H221          H  0.5470050  0.5670950  0.5141430    0.00000       Uiso       1.00
      C222          C  0.9720500  0.0227000 -0.0816330    0.00000       Uiso       1.00
      C223          C  0.0135130  0.0442530 -0.0125670    0.00000       Uiso       1.00
      C224          C  0.0553100  0.0230140 -0.1374760    0.00000       Uiso       1.00
      C225          C  0.0713030  0.0445050 -0.1496550    0.00000       Uiso       1.00
      C226          C  0.0639710  0.0663050 -0.3277500    0.00000       Uiso       1.00
      C227          C  0.0796670  0.0875030 -0.3298910    0.00000       Uiso       1.00
      C228          C  0.1041140  0.0873490 -0.1652290    0.00000       Uiso       1.00
      C229          C  0.1122180  0.0655730  0.0020200    0.00000       Uiso       1.00
      C230          C  0.0959860  0.0447670  0.0141680    0.00000       Uiso       1.00
      H231          H  0.0222680  0.0606770  0.0373920    0.00000       Uiso       1.00
      H232          H  0.0469750  0.0670550 -0.4616020    0.00000       Uiso       1.00
      H233          H  0.0731220  0.1028220 -0.4569200    0.00000       Uiso       1.00
      H234          H  0.1299300  0.0647960  0.1214370    0.00000       Uiso       1.00
      H235          H  0.1024870  0.0297140  0.1489890    0.00000       Uiso       1.00
      C236          C  0.8619250  0.8522920 -0.2280650    0.00000       Uiso       1.00
      C237          C  0.8663310  0.8274310 -0.3239890    0.00000       Uiso       1.00
      C238          C  0.8469660  0.8094280 -0.2815320    0.00000       Uiso       1.00
      C239          C  0.8226340  0.8159680 -0.1425780    0.00000       Uiso       1.00
      C240          C  0.8178840  0.8406990 -0.0484420    0.00000       Uiso       1.00
      C241          C  0.8373330  0.8586180 -0.0908190    0.00000       Uiso       1.00
      C242          C  0.8047560  0.7993170 -0.0995420    0.00000       Uiso       1.00
      C243          C  0.7883480  0.7840720 -0.0580050    0.00000       Uiso       1.00
      C244          C  0.7704000  0.7675370 -0.0119280    0.00000       Uiso       1.00
      C245          C  0.7459820  0.7740560  0.1248320    0.00000       Uiso       1.00
      C246          C  0.7266740  0.7563660  0.1717370    0.00000       Uiso       1.00
      C247          C  0.7310310  0.7314310  0.0846390    0.00000       Uiso       1.00
      C248          C  0.7554690  0.7246960 -0.0514260    0.00000       Uiso       1.00
      C249          C  0.7749729  0.7425900 -0.0995190    0.00000       Uiso       1.00
      C250          C  0.7130150  0.7149200  0.1277050    0.00000       Uiso       1.00
      C251          C  0.6964430  0.6997990  0.1664090    0.00000       Uiso       1.00
      C252          C  0.6783510  0.6833210  0.2065380    0.00000       Uiso       1.00
      C253          C  0.6540460  0.6900460  0.3446510    0.00000       Uiso       1.00
      C254          C  0.6344670  0.6722190  0.3844050    0.00000       Uiso       1.00
      C255          C  0.6386290  0.6473570  0.2866130    0.00000       Uiso       1.00
      C256          C  0.6631880  0.6408510  0.1499290    0.00000       Uiso       1.00
      C257          C  0.6828460  0.6585900  0.1102180    0.00000       Uiso       1.00
      N258          N  0.7049740  0.7662801  0.3028620    0.00000       Uiso       1.00
      S259          S  0.7072950  0.7969130  0.3714870    0.00000       Uiso       1.00
      N260          N  0.7380300  0.7965440  0.2232860    0.00000       Uiso       1.00
      H261          H  0.8837920  0.8221089 -0.4255570    0.00000       Uiso       1.00
      H262          H  0.8508821  0.7916000 -0.3529810    0.00000       Uiso       1.00
      H263          H  0.8003510  0.8459381  0.0525710    0.00000       Uiso       1.00
      H264          H  0.8332510  0.8763680 -0.0191580    0.00000       Uiso       1.00
      H265          H  0.7593530  0.7067640 -0.1176910    0.00000       Uiso       1.00
      H266          H  0.7924641  0.7371560 -0.1995800    0.00000       Uiso       1.00
      H267          H  0.6503100  0.7078810  0.4175120    0.00000       Uiso       1.00
      H268          H  0.6170350  0.6776690  0.4855040    0.00000       Uiso       1.00
      H269          H  0.6670991  0.6230959  0.0768090    0.00000       Uiso       1.00
      H270          H  0.7003470  0.6532180  0.0096090    0.00000       Uiso       1.00
      C271          C  0.8818350  0.8698261 -0.2696890    0.00000       Uiso       1.00
      N272          N  0.8793430  0.8932760 -0.1543860    0.00000       Uiso       1.00
      N273          N  0.6208860  0.6065450  0.2097710    0.00000       Uiso       1.00
      C274          C  0.6185410  0.6299820  0.3261140    0.00000       Uiso       1.00
      H275          H  0.1012860  0.1354620 -0.3871760    0.00000       Uiso       1.00
      H276          H  0.3983270  0.3646360  0.4430670    0.00000       Uiso       1.00
      C277          C  0.4323890  0.5000000  0.2408700    0.00000       Uiso       1.00
      C278          C  0.5139270  0.5000000  0.1378690    0.00000       Uiso       1.00
      H279          H  0.4133150  0.5000000  0.3148940    0.00000       Uiso       1.00
      C280          C  0.5676110  0.5000000  0.2408700    0.00000       Uiso       1.00
      C281          C  0.4860740  0.5000000  0.1378690    0.00000       Uiso       1.00
      H282          H  0.5866860  0.5000000  0.3148940    0.00000       Uiso       1.00
      C283          C  0.9323750  0.0000000 -0.1876260    0.00000       Uiso       1.00
      C284          C  0.0139280  0.0000000 -0.0850040    0.00000       Uiso       1.00
      H285          H  0.9132940  0.0000000 -0.2613280    0.00000       Uiso       1.00
      C286          C  0.0676260  0.0000000 -0.1876260    0.00000       Uiso       1.00
      C287          C  0.9860730  0.0000000 -0.0850040    0.00000       Uiso       1.00
      H288          H  0.0867070  0.0000000 -0.2613280    0.00000       Uiso       1.00
