data_Py-DBA-COF-2
_audit_creation_date              0000-00-00
_audit_creation_method            'LanYouShi'
_symmetry_space_group_name_H-M    'P1'
_cell_length_a                    46.9413986
_cell_length_b                    46.9413986
_cell_length_c                    3.5209000
_cell_angle_alpha                 90.0000000
_cell_angle_beta                  90.0000000
_cell_angle_gamma                 120.0020981
loop_
_atom_site_label
_atom_site_type_symbol
_atom_site_fract_x
_atom_site_fract_y
_atom_site_fract_z
_atom_site_U_iso_or_equiv
_atom_site_adp_type
_atom_site_occupancy
        C1          C  0.4563080  0.4912590  1.2332350    0.00000       Uiso       1.00
        C2          C  0.4392180  0.5088870  1.2332370    0.00000       Uiso       1.00
        C3          C  0.4392710  0.4565500  1.2332360    0.00000       Uiso       1.00
        H4          H  0.4140220  0.4962920  1.2332380    0.00000       Uiso       1.00
        H5          H  0.4140990  0.4435160  1.2332360    0.00000       Uiso       1.00
        C6          C  0.3974650  0.8246210  1.2332340    0.00000       Uiso       1.00
        C7          C  0.3672820  0.7950720  1.2332350    0.00000       Uiso       1.00
        C8          C  0.3386670  0.7376270  1.2332360    0.00000       Uiso       1.00
        C9          C  0.3129550  0.7124670  1.2332360    0.00000       Uiso       1.00
       C10          C  0.3672070  0.7648550  1.2332340    0.00000       Uiso       1.00
       H11          H  0.3459250  0.7959830  1.2332350    0.00000       Uiso       1.00
       O12          O  0.4028080  0.8556579  1.2332360    0.00000       Uiso       1.00
       C13          C  0.5087410  0.9650500  1.2332370    0.00000       Uiso       1.00
       C14          C  0.4911140  0.9303310  1.2332360    0.00000       Uiso       1.00
       C15          C  0.5434500  0.9827250  1.2332350    0.00000       Uiso       1.00
       H16          H  0.5037110  0.9177309  1.2332360    0.00000       Uiso       1.00
       H17          H  0.5564850  0.9705880  1.2332360    0.00000       Uiso       1.00
       C18          C  0.1753750  0.5728280  1.2332360    0.00000       Uiso       1.00
       C19          C  0.2049220  0.5721930  1.2332360    0.00000       Uiso       1.00
       C20          C  0.2623680  0.6010210  1.2332340    0.00000       Uiso       1.00
       C21          C  0.2875270  0.6004700  1.2332350    0.00000       Uiso       1.00
       C22          C  0.2351410  0.6023340  1.2332340    0.00000       Uiso       1.00
       H23          H  0.2040090  0.5499230  1.2332380    0.00000       Uiso       1.00
       O24          O  0.1443370  0.5471360  1.2332340    0.00000       Uiso       1.00
       C25          C  0.0349540  0.5436900  1.2332350    0.00000       Uiso       1.00
       C26          C  0.0696730  0.5607790  1.2332360    0.00000       Uiso       1.00
       C27          C  0.0172840  0.5607280  1.2332350    0.00000       Uiso       1.00
       H28          H  0.0822760  0.5859760  1.2332360    0.00000       Uiso       1.00
       H29          H  0.0294250  0.5859000  1.2332330    0.00000       Uiso       1.00
       C30          C  0.4271660  0.6025380  1.2332340    0.00000       Uiso       1.00
       C31          C  0.4278020  0.6327200  1.2332340    0.00000       Uiso       1.00
       C32          C  0.3989740  0.6613360  1.2332380    0.00000       Uiso       1.00
       C33          C  0.3995270  0.6870470  1.2332380    0.00000       Uiso       1.00
       C34          C  0.3976600  0.6327950  1.2332360    0.00000       Uiso       1.00
       H35          H  0.4500710  0.6540770  1.2332340    0.00000       Uiso       1.00
       O36          O  0.4528590  0.5971940  1.2332350    0.00000       Uiso       1.00
       C37          C  0.5436900  0.5087390  1.2332360    0.00000       Uiso       1.00
       C38          C  0.5607800  0.4911120  1.2332350    0.00000       Uiso       1.00
       C39          C  0.5607280  0.5434490  1.2332350    0.00000       Uiso       1.00
       H40          H  0.5859770  0.5037080  1.2332350    0.00000       Uiso       1.00
       H41          H  0.5859000  0.5564820  1.2332340    0.00000       Uiso       1.00
       C42          C  0.6025340  0.1753780  1.2332360    0.00000       Uiso       1.00
       C43          C  0.6327160  0.2049270  1.2332370    0.00000       Uiso       1.00
       C44          C  0.6613320  0.2623720  1.2332350    0.00000       Uiso       1.00
       C45          C  0.6870430  0.2875320  1.2332330    0.00000       Uiso       1.00
       C46          C  0.6327910  0.2351430  1.2332360    0.00000       Uiso       1.00
       H47          H  0.6540730  0.2040160  1.2332360    0.00000       Uiso       1.00
       O48          O  0.5971900  0.1443410  1.2332340    0.00000       Uiso       1.00
       C49          C  0.4912580  0.0349490  1.2332360    0.00000       Uiso       1.00
       C50          C  0.5088850  0.0696680  1.2332360    0.00000       Uiso       1.00
       C51          C  0.4565480  0.0172740  1.2332360    0.00000       Uiso       1.00
       H52          H  0.4962880  0.0822680  1.2332350    0.00000       Uiso       1.00
       H53          H  0.4435140  0.0294110  1.2332350    0.00000       Uiso       1.00
       C54          C  0.8246230  0.4271710  1.2332350    0.00000       Uiso       1.00
       C55          C  0.7950760  0.4278060  1.2332360    0.00000       Uiso       1.00
       C56          C  0.7376300  0.3989770  1.2332370    0.00000       Uiso       1.00
       C57          C  0.7124710  0.3995290  1.2332350    0.00000       Uiso       1.00
       C58          C  0.7648570  0.3976650  1.2332400    0.00000       Uiso       1.00
       H59          H  0.7959900  0.4500750  1.2332330    0.00000       Uiso       1.00
       O60          O  0.8556610  0.4528630  1.2332330    0.00000       Uiso       1.00
       C61          C  0.9650440  0.4563090  1.2332360    0.00000       Uiso       1.00
       C62          C  0.9303250  0.4392200  1.2332360    0.00000       Uiso       1.00
       C63          C  0.9827139  0.4392710  1.2332360    0.00000       Uiso       1.00
       H64          H  0.9177219  0.4140230  1.2332350    0.00000       Uiso       1.00
       H65          H  0.9705730  0.4140980  1.2332360    0.00000       Uiso       1.00
       C66          C  0.5728320  0.3974610  1.2332370    0.00000       Uiso       1.00
       C67          C  0.5721970  0.3672790  1.2332370    0.00000       Uiso       1.00
       C68          C  0.6010250  0.3386630  1.2332330    0.00000       Uiso       1.00
       C69          C  0.6004720  0.3129520  1.2332309    0.00000       Uiso       1.00
       C70          C  0.6023380  0.3672040  1.2332350    0.00000       Uiso       1.00
       H71          H  0.5499270  0.3459220  1.2332360    0.00000       Uiso       1.00
       O72          O  0.5471400  0.4028050  1.2332370    0.00000       Uiso       1.00
       C73          C  0.4912590  0.4563080  1.2332350    0.00000       Uiso       1.00
       C74          C  0.5088870  0.4392180  1.2332360    0.00000       Uiso       1.00
       C75          C  0.4565500  0.4392710  1.2332350    0.00000       Uiso       1.00
       H76          H  0.4962910  0.4140220  1.2332350    0.00000       Uiso       1.00
       H77          H  0.4435160  0.4140990  1.2332340    0.00000       Uiso       1.00
       C78          C  0.8246210  0.3974650  1.2332350    0.00000       Uiso       1.00
       C79          C  0.7950720  0.3672830  1.2332360    0.00000       Uiso       1.00
       C80          C  0.7376270  0.3386670  1.2332370    0.00000       Uiso       1.00
       C81          C  0.7124670  0.3129560  1.2332340    0.00000       Uiso       1.00
       C82          C  0.7648550  0.3672070  1.2332380    0.00000       Uiso       1.00
       H83          H  0.7959830  0.3459250  1.2332340    0.00000       Uiso       1.00
       O84          O  0.8556580  0.4028090  1.2332340    0.00000       Uiso       1.00
       C85          C  0.9650500  0.5087410  1.2332370    0.00000       Uiso       1.00
       C86          C  0.9303309  0.4911140  1.2332360    0.00000       Uiso       1.00
       C87          C  0.9827250  0.5434500  1.2332350    0.00000       Uiso       1.00
       H88          H  0.9177310  0.5037110  1.2332360    0.00000       Uiso       1.00
       H89          H  0.9705880  0.5564850  1.2332340    0.00000       Uiso       1.00
       C90          C  0.5728280  0.1753760  1.2332380    0.00000       Uiso       1.00
       C91          C  0.5721930  0.2049230  1.2332370    0.00000       Uiso       1.00
       C92          C  0.6010220  0.2623690  1.2332350    0.00000       Uiso       1.00
       C93          C  0.6004700  0.2875280  1.2332330    0.00000       Uiso       1.00
       C94          C  0.6023340  0.2351420  1.2332370    0.00000       Uiso       1.00
       H95          H  0.5499240  0.2040090  1.2332360    0.00000       Uiso       1.00
       O96          O  0.5471360  0.1443380  1.2332370    0.00000       Uiso       1.00
       C97          C  0.5436900  0.0349550  1.2332360    0.00000       Uiso       1.00
       C98          C  0.5607790  0.0696740  1.2332340    0.00000       Uiso       1.00
       C99          C  0.5607290  0.0172850  1.2332350    0.00000       Uiso       1.00
      H100          H  0.5859760  0.0822770  1.2332330    0.00000       Uiso       1.00
      H101          H  0.5859010  0.0294260  1.2332350    0.00000       Uiso       1.00
      C102          C  0.6025380  0.4271670  1.2332370    0.00000       Uiso       1.00
      C103          C  0.6327200  0.4278020  1.2332350    0.00000       Uiso       1.00
      C104          C  0.6613360  0.3989740  1.2332360    0.00000       Uiso       1.00
      C105          C  0.6870470  0.3995280  1.2332360    0.00000       Uiso       1.00
      C106          C  0.6327960  0.3976610  1.2332360    0.00000       Uiso       1.00
      H107          H  0.6540770  0.4500720  1.2332320    0.00000       Uiso       1.00
      O108          O  0.5971940  0.4528590  1.2332360    0.00000       Uiso       1.00
      C109          C  0.5087400  0.5436910  1.2332360    0.00000       Uiso       1.00
      C110          C  0.4911120  0.5607810  1.2332350    0.00000       Uiso       1.00
      C111          C  0.5434490  0.5607280  1.2332360    0.00000       Uiso       1.00
      H112          H  0.5037080  0.5859770  1.2332340    0.00000       Uiso       1.00
      H113          H  0.5564830  0.5859000  1.2332370    0.00000       Uiso       1.00
      C114          C  0.1753770  0.6025340  1.2332360    0.00000       Uiso       1.00
      C115          C  0.2049260  0.6327160  1.2332360    0.00000       Uiso       1.00
      C116          C  0.2623720  0.6613320  1.2332340    0.00000       Uiso       1.00
      C117          C  0.2875310  0.6870430  1.2332360    0.00000       Uiso       1.00
      C118          C  0.2351430  0.6327910  1.2332330    0.00000       Uiso       1.00
      H119          H  0.2040160  0.6540730  1.2332360    0.00000       Uiso       1.00
      O120          O  0.1443410  0.5971900  1.2332370    0.00000       Uiso       1.00
      C121          C  0.0349490  0.4912580  1.2332360    0.00000       Uiso       1.00
      C122          C  0.0696680  0.5088840  1.2332340    0.00000       Uiso       1.00
      C123          C  0.0172730  0.4565480  1.2332350    0.00000       Uiso       1.00
      H124          H  0.0822670  0.4962880  1.2332340    0.00000       Uiso       1.00
      H125          H  0.0294110  0.4435140  1.2332350    0.00000       Uiso       1.00
      C126          C  0.4271700  0.8246230  1.2332350    0.00000       Uiso       1.00
      C127          C  0.4278050  0.7950760  1.2332330    0.00000       Uiso       1.00
      C128          C  0.3989770  0.7376300  1.2332370    0.00000       Uiso       1.00
      C129          C  0.3995280  0.7124710  1.2332380    0.00000       Uiso       1.00
      C130          C  0.3976640  0.7648570  1.2332360    0.00000       Uiso       1.00
      H131          H  0.4500750  0.7959900  1.2332330    0.00000       Uiso       1.00
      O132          O  0.4528620  0.8556610  1.2332340    0.00000       Uiso       1.00
      C133          C  0.4563080  0.9650440  1.2332350    0.00000       Uiso       1.00
      C134          C  0.4392190  0.9303250  1.2332360    0.00000       Uiso       1.00
      C135          C  0.4392700  0.9827139  1.2332350    0.00000       Uiso       1.00
      H136          H  0.4140230  0.9177220  1.2332360    0.00000       Uiso       1.00
      H137          H  0.4140970  0.9705730  1.2332350    0.00000       Uiso       1.00
      C138          C  0.3974610  0.5728320  1.2332340    0.00000       Uiso       1.00
      C139          C  0.3672790  0.5721970  1.2332360    0.00000       Uiso       1.00
      C140          C  0.3386630  0.6010250  1.2332340    0.00000       Uiso       1.00
      C141          C  0.3129510  0.6004710  1.2332340    0.00000       Uiso       1.00
      C142          C  0.3672030  0.6023380  1.2332330    0.00000       Uiso       1.00
      H143          H  0.3459210  0.5499270  1.2332380    0.00000       Uiso       1.00
      O144          O  0.4028050  0.5471400  1.2332350    0.00000       Uiso       1.00
      B145          B  0.4381220  0.8762350  1.2332350    0.00000       Uiso       1.00
      B146          B  0.1237640  0.5618760  1.2332360    0.00000       Uiso       1.00
      B147          B  0.4381190  0.5618800  1.2332350    0.00000       Uiso       1.00
      B148          B  0.5618760  0.1237640  1.2332350    0.00000       Uiso       1.00
      B149          B  0.8762350  0.4381230  1.2332340    0.00000       Uiso       1.00
      B150          B  0.5618790  0.4381190  1.2332360    0.00000       Uiso       1.00
      C151          C  0.4564160  0.5435840  1.2332350    0.00000       Uiso       1.00
      C152          C  0.4912580  0.5087410  1.2332350    0.00000       Uiso       1.00
      C153          C  0.4564180  0.9128280  1.2332360    0.00000       Uiso       1.00
      C154          C  0.4912580  0.9825150  1.2332360    0.00000       Uiso       1.00
      C155          C  0.0871700  0.5435810  1.2332340    0.00000       Uiso       1.00
      C156          C  0.0174830  0.5087400  1.2332360    0.00000       Uiso       1.00
      C157          C  0.5435830  0.4564150  1.2332350    0.00000       Uiso       1.00
      C158          C  0.5087410  0.4912580  1.2332360    0.00000       Uiso       1.00
      C159          C  0.5435810  0.0871710  1.2332340    0.00000       Uiso       1.00
      C160          C  0.5087410  0.0174840  1.2332360    0.00000       Uiso       1.00
      C161          C  0.9128280  0.4564180  1.2332360    0.00000       Uiso       1.00
      C162          C  0.9825149  0.4912580  1.2332370    0.00000       Uiso       1.00
