data_Py-DHPh_COF
_audit_creation_date              0000-00-00
_audit_creation_method            'LanYouShi'
_symmetry_space_group_name_H-M    'P1'
_cell_length_a                    35.5954018
_cell_length_b                    33.2472992
_cell_length_c                    7.4145999
_cell_angle_alpha                 90.0000000
_cell_angle_beta                  90.0000000
_cell_angle_gamma                 90.0000000
loop_
_atom_site_label
_atom_site_type_symbol
_atom_site_fract_x
_atom_site_fract_y
_atom_site_fract_z
_atom_site_U_iso_or_equiv
_atom_site_adp_type
_atom_site_occupancy
        C1          C  0.0397800  0.4629120  0.4672670    0.00000       Uiso       1.00
        C2          C  0.5397800  0.9629120  0.4672670    0.00000       Uiso       1.00
        C3          C  0.9602200  0.4629120  0.5327330    0.00000       Uiso       1.00
        C4          C  0.4602200  0.9629120  0.5327330    0.00000       Uiso       1.00
        C5          C  0.9602200  0.5370880  0.5327330    0.00000       Uiso       1.00
        C6          C  0.4602200  0.0370880  0.5327330    0.00000       Uiso       1.00
        C7          C  0.0397800  0.5370880  0.4672670    0.00000       Uiso       1.00
        C8          C  0.5397800  0.0370880  0.4672670    0.00000       Uiso       1.00
        C9          C  0.9808121  0.4267200  0.5192510    0.00000       Uiso       1.00
       C10          C  0.4808120  0.9267200  0.5192510    0.00000       Uiso       1.00
       C11          C  0.0191880  0.4267200  0.4807490    0.00000       Uiso       1.00
       C12          C  0.5191880  0.9267200  0.4807490    0.00000       Uiso       1.00
       C13          C  0.0191880  0.5732800  0.4807490    0.00000       Uiso       1.00
       C14          C  0.5191880  0.0732800  0.4807490    0.00000       Uiso       1.00
       C15          C  0.9808121  0.5732800  0.5192510    0.00000       Uiso       1.00
       C16          C  0.4808120  0.0732800  0.5192510    0.00000       Uiso       1.00
       C17          C  0.9208459  0.4628200  0.5671250    0.00000       Uiso       1.00
       C18          C  0.4208460  0.9628201  0.5671250    0.00000       Uiso       1.00
       C19          C  0.0791540  0.4628200  0.4328750    0.00000       Uiso       1.00
       C20          C  0.5791540  0.9628201  0.4328750    0.00000       Uiso       1.00
       C21          C  0.0791540  0.5371800  0.4328750    0.00000       Uiso       1.00
       C22          C  0.5791540  0.0371800  0.4328750    0.00000       Uiso       1.00
       C23          C  0.9208459  0.5371800  0.5671250    0.00000       Uiso       1.00
       C24          C  0.4208460  0.0371800  0.5671250    0.00000       Uiso       1.00
       C25          C  0.8976440  0.4281260  0.5636730    0.00000       Uiso       1.00
       C26          C  0.3976440  0.9281260  0.5636730    0.00000       Uiso       1.00
       C27          C  0.1023560  0.4281260  0.4363270    0.00000       Uiso       1.00
       C28          C  0.6023560  0.9281260  0.4363270    0.00000       Uiso       1.00
       C29          C  0.1023560  0.5718740  0.4363270    0.00000       Uiso       1.00
       C30          C  0.6023560  0.0718740  0.4363270    0.00000       Uiso       1.00
       C31          C  0.8976440  0.5718740  0.5636730    0.00000       Uiso       1.00
       C32          C  0.3976440  0.0718740  0.5636730    0.00000       Uiso       1.00
       C33          C  0.8709660  0.4206430  0.7014950    0.00000       Uiso       1.00
       C34          C  0.3709660  0.9206430  0.7014950    0.00000       Uiso       1.00
       C35          C  0.1290340  0.4206430  0.2985050    0.00000       Uiso       1.00
       C36          C  0.6290340  0.9206430  0.2985050    0.00000       Uiso       1.00
       C37          C  0.1290340  0.5793570  0.2985050    0.00000       Uiso       1.00
       C38          C  0.6290340  0.0793570  0.2985050    0.00000       Uiso       1.00
       C39          C  0.8709660  0.5793570  0.7014950    0.00000       Uiso       1.00
       C40          C  0.3709660  0.0793570  0.7014950    0.00000       Uiso       1.00
       C41          C  0.8462700  0.3877220  0.6908550    0.00000       Uiso       1.00
       C42          C  0.3462700  0.8877220  0.6908550    0.00000       Uiso       1.00
       C43          C  0.1537300  0.3877220  0.3091450    0.00000       Uiso       1.00
       C44          C  0.6537300  0.8877220  0.3091450    0.00000       Uiso       1.00
       C45          C  0.1537300  0.6122780  0.3091450    0.00000       Uiso       1.00
       C46          C  0.6537300  0.1122780  0.3091450    0.00000       Uiso       1.00
       C47          C  0.8462700  0.6122780  0.6908550    0.00000       Uiso       1.00
       C48          C  0.3462700  0.1122780  0.6908550    0.00000       Uiso       1.00
       C49          C  0.8474950  0.3616010  0.5408740    0.00000       Uiso       1.00
       C50          C  0.3474950  0.8616010  0.5408740    0.00000       Uiso       1.00
       C51          C  0.1525050  0.3616010  0.4591260    0.00000       Uiso       1.00
       C52          C  0.6525050  0.8616010  0.4591260    0.00000       Uiso       1.00
       C53          C  0.1525050  0.6383990  0.4591260    0.00000       Uiso       1.00
       C54          C  0.6525050  0.1383990  0.4591260    0.00000       Uiso       1.00
       C55          C  0.8474950  0.6383990  0.5408740    0.00000       Uiso       1.00
       C56          C  0.3474950  0.1383990  0.5408740    0.00000       Uiso       1.00
       C57          C  0.8742680  0.3683780  0.4047660    0.00000       Uiso       1.00
       C58          C  0.3742680  0.8683780  0.4047660    0.00000       Uiso       1.00
       C59          C  0.1257320  0.3683780  0.5952340    0.00000       Uiso       1.00
       C60          C  0.6257320  0.8683780  0.5952340    0.00000       Uiso       1.00
       C61          C  0.1257320  0.6316220  0.5952340    0.00000       Uiso       1.00
       C62          C  0.6257320  0.1316220  0.5952340    0.00000       Uiso       1.00
       C63          C  0.8742680  0.6316220  0.4047660    0.00000       Uiso       1.00
       C64          C  0.3742680  0.1316220  0.4047660    0.00000       Uiso       1.00
       C65          C  0.8989340  0.4012860  0.4154260    0.00000       Uiso       1.00
       C66          C  0.3989340  0.9012860  0.4154260    0.00000       Uiso       1.00
       C67          C  0.1010660  0.4012860  0.5845740    0.00000       Uiso       1.00
       C68          C  0.6010660  0.9012860  0.5845740    0.00000       Uiso       1.00
       C69          C  0.1010660  0.5987140  0.5845740    0.00000       Uiso       1.00
       C70          C  0.6010660  0.0987140  0.5845740    0.00000       Uiso       1.00
       C71          C  0.8989340  0.5987140  0.4154260    0.00000       Uiso       1.00
       C72          C  0.3989340  0.0987140  0.4154260    0.00000       Uiso       1.00
       H73          H  0.9682840  0.3993870  0.5380660    0.00000       Uiso       1.00
       H74          H  0.4682840  0.8993870  0.5380660    0.00000       Uiso       1.00
       H75          H  0.0317160  0.3993870  0.4619340    0.00000       Uiso       1.00
       H76          H  0.5317160  0.8993870  0.4619340    0.00000       Uiso       1.00
       H77          H  0.0317160  0.6006130  0.4619340    0.00000       Uiso       1.00
       H78          H  0.5317160  0.1006130  0.4619340    0.00000       Uiso       1.00
       H79          H  0.9682840  0.6006130  0.5380660    0.00000       Uiso       1.00
       H80          H  0.4682840  0.1006130  0.5380660    0.00000       Uiso       1.00
       H81          H  0.8694350  0.4391050  0.8118000    0.00000       Uiso       1.00
       H82          H  0.3694360  0.9391050  0.8118000    0.00000       Uiso       1.00
       H83          H  0.1305640  0.4391050  0.1882000    0.00000       Uiso       1.00
       H84          H  0.6305640  0.9391050  0.1882000    0.00000       Uiso       1.00
       H85          H  0.1305640  0.5608950  0.1882000    0.00000       Uiso       1.00
       H86          H  0.6305640  0.0608950  0.1882000    0.00000       Uiso       1.00
       H87          H  0.8694350  0.5608950  0.8118000    0.00000       Uiso       1.00
       H88          H  0.3694360  0.0608950  0.8118000    0.00000       Uiso       1.00
       H89          H  0.8273910  0.3832930  0.7924790    0.00000       Uiso       1.00
       H90          H  0.3273910  0.8832930  0.7924790    0.00000       Uiso       1.00
       H91          H  0.1726090  0.3832930  0.2075210    0.00000       Uiso       1.00
       H92          H  0.6726090  0.8832930  0.2075210    0.00000       Uiso       1.00
       H93          H  0.1726090  0.6167070  0.2075210    0.00000       Uiso       1.00
       H94          H  0.6726090  0.1167070  0.2075210    0.00000       Uiso       1.00
       H95          H  0.8273910  0.6167070  0.7924790    0.00000       Uiso       1.00
       H96          H  0.3273910  0.1167070  0.7924790    0.00000       Uiso       1.00
       H97          H  0.8755080  0.3495080  0.2957250    0.00000       Uiso       1.00
       H98          H  0.3755080  0.8495080  0.2957250    0.00000       Uiso       1.00
       H99          H  0.1244920  0.3495080  0.7042750    0.00000       Uiso       1.00
      H100          H  0.6244920  0.8495080  0.7042750    0.00000       Uiso       1.00
      H101          H  0.1244920  0.6504920  0.7042750    0.00000       Uiso       1.00
      H102          H  0.6244920  0.1504920  0.7042750    0.00000       Uiso       1.00
      H103          H  0.8755080  0.6504920  0.2957250    0.00000       Uiso       1.00
      H104          H  0.3755080  0.1504920  0.2957250    0.00000       Uiso       1.00
      H105          H  0.9172030  0.4060490  0.3109010    0.00000       Uiso       1.00
      H106          H  0.4172030  0.9060490  0.3109010    0.00000       Uiso       1.00
      H107          H  0.0827970  0.4060490  0.6890990    0.00000       Uiso       1.00
      H108          H  0.5827970  0.9060490  0.6890990    0.00000       Uiso       1.00
      H109          H  0.0827970  0.5939510  0.6890990    0.00000       Uiso       1.00
      H110          H  0.5827970  0.0939510  0.6890990    0.00000       Uiso       1.00
      H111          H  0.9172030  0.5939510  0.3109010    0.00000       Uiso       1.00
      H112          H  0.4172030  0.0939510  0.3109010    0.00000       Uiso       1.00
      C113          C  0.9025480  0.5000000  0.5929420    0.00000       Uiso       1.00
      C114          C  0.4025480  0.0000000  0.5929420    0.00000       Uiso       1.00
      C115          C  0.0974520  0.5000000  0.4070580    0.00000       Uiso       1.00
      C116          C  0.5974520  0.0000000  0.4070580    0.00000       Uiso       1.00
      C117          C  0.0198630  0.5000000  0.4838640    0.00000       Uiso       1.00
      C118          C  0.5198630  0.0000000  0.4838640    0.00000       Uiso       1.00
      C119          C  0.9801359  0.5000000  0.5161360    0.00000       Uiso       1.00
      C120          C  0.4801370  0.0000000  0.5161360    0.00000       Uiso       1.00
      H121          H  0.8741860  0.5000000  0.6177830    0.00000       Uiso       1.00
      H122          H  0.3741860  0.0000000  0.6177830    0.00000       Uiso       1.00
      H123          H  0.1258140  0.5000000  0.3822170    0.00000       Uiso       1.00
      H124          H  0.6258140  0.0000000  0.3822170    0.00000       Uiso       1.00
      N125          N  0.3241280  0.1697370  0.5137320    0.00000       Uiso       1.00
      N126          N  0.8241280  0.6697370  0.5137320    0.00000       Uiso       1.00
      N127          N  0.6758720  0.1697370  0.4862680    0.00000       Uiso       1.00
      N128          N  0.1758720  0.6697370  0.4862680    0.00000       Uiso       1.00
      N129          N  0.6758720  0.8302630  0.4862680    0.00000       Uiso       1.00
      N130          N  0.1758720  0.3302630  0.4862680    0.00000       Uiso       1.00
      N131          N  0.3241280  0.8302630  0.5137320    0.00000       Uiso       1.00
      N132          N  0.8241280  0.3302630  0.5137320    0.00000       Uiso       1.00
      C133          C  0.2956660  0.1847020  0.6129251    0.00000       Uiso       1.00
      C134          C  0.7956660  0.6847020  0.6129251    0.00000       Uiso       1.00
      C135          C  0.7043340  0.1847020  0.3870750    0.00000       Uiso       1.00
      C136          C  0.2043340  0.6847020  0.3870750    0.00000       Uiso       1.00
      C137          C  0.7043340  0.8152980  0.3870750    0.00000       Uiso       1.00
      C138          C  0.2043340  0.3152980  0.3870750    0.00000       Uiso       1.00
      C139          C  0.2956660  0.8152980  0.6129251    0.00000       Uiso       1.00
      C140          C  0.7956660  0.3152980  0.6129251    0.00000       Uiso       1.00
      C141          C  0.2735600  0.2172260  0.5530380    0.00000       Uiso       1.00
      C142          C  0.7735600  0.7172260  0.5530380    0.00000       Uiso       1.00
      C143          C  0.7264400  0.2172260  0.4469620    0.00000       Uiso       1.00
      C144          C  0.2264400  0.7172260  0.4469620    0.00000       Uiso       1.00
      C145          C  0.7264400  0.7827740  0.4469620    0.00000       Uiso       1.00
      C146          C  0.2264400  0.2827740  0.4469620    0.00000       Uiso       1.00
      C147          C  0.2735600  0.7827740  0.5530380    0.00000       Uiso       1.00
      C148          C  0.7735600  0.2827740  0.5530380    0.00000       Uiso       1.00
      C149          C  0.2444920  0.2312750  0.6671050    0.00000       Uiso       1.00
      C150          C  0.7444920  0.7312750  0.6671050    0.00000       Uiso       1.00
      C151          C  0.7555080  0.2312750  0.3328950    0.00000       Uiso       1.00
      C152          C  0.2555080  0.7312750  0.3328950    0.00000       Uiso       1.00
      C153          C  0.7555080  0.7687250  0.3328950    0.00000       Uiso       1.00
      C154          C  0.2555080  0.2687250  0.3328950    0.00000       Uiso       1.00
      C155          C  0.2444920  0.7687250  0.6671050    0.00000       Uiso       1.00
      C156          C  0.7444920  0.2687250  0.6671050    0.00000       Uiso       1.00
      C157          C  0.2212690  0.2634510  0.6161500    0.00000       Uiso       1.00
      C158          C  0.7212690  0.7634510  0.6161500    0.00000       Uiso       1.00
      C159          C  0.7787310  0.2634510  0.3838500    0.00000       Uiso       1.00
      C160          C  0.2787310  0.7634510  0.3838500    0.00000       Uiso       1.00
      C161          C  0.7787310  0.7365490  0.3838500    0.00000       Uiso       1.00
      C162          C  0.2787310  0.2365490  0.3838500    0.00000       Uiso       1.00
      C163          C  0.2212690  0.7365490  0.6161500    0.00000       Uiso       1.00
      C164          C  0.7212690  0.2365490  0.6161500    0.00000       Uiso       1.00
      H165          H  0.2398700  0.2181290  0.7899430    0.00000       Uiso       1.00
      H166          H  0.7398700  0.7181290  0.7899430    0.00000       Uiso       1.00
      H167          H  0.7601300  0.2181290  0.2100570    0.00000       Uiso       1.00
      H168          H  0.2601300  0.7181290  0.2100570    0.00000       Uiso       1.00
      H169          H  0.7601300  0.7818710  0.2100570    0.00000       Uiso       1.00
      H170          H  0.2601300  0.2818710  0.2100570    0.00000       Uiso       1.00
      H171          H  0.2398700  0.7818710  0.7899430    0.00000       Uiso       1.00
      H172          H  0.7398700  0.2818710  0.7899430    0.00000       Uiso       1.00
      O173          O  0.1946920  0.2741770  0.7375740    0.00000       Uiso       1.00
      O174          O  0.6946920  0.7741770  0.7375740    0.00000       Uiso       1.00
      O175          O  0.8053080  0.2741770  0.2624260    0.00000       Uiso       1.00
      O176          O  0.3053080  0.7741770  0.2624260    0.00000       Uiso       1.00
      O177          O  0.8053080  0.7258230  0.2624260    0.00000       Uiso       1.00
      O178          O  0.3053080  0.2258230  0.2624260    0.00000       Uiso       1.00
      O179          O  0.1946920  0.7258230  0.7375740    0.00000       Uiso       1.00
      O180          O  0.6946920  0.2258230  0.7375740    0.00000       Uiso       1.00
      H181          H  0.2898390  0.1718860  0.7351980    0.00000       Uiso       1.00
      H182          H  0.1917970  0.2595300  0.8512640    0.00000       Uiso       1.00
      H183          H  0.7898380  0.6718860  0.7351980    0.00000       Uiso       1.00
      H184          H  0.6917970  0.7595300  0.8512640    0.00000       Uiso       1.00
      H185          H  0.7101610  0.1718860  0.2648020    0.00000       Uiso       1.00
      H186          H  0.8082030  0.2595300  0.1487360    0.00000       Uiso       1.00
      H187          H  0.2101610  0.6718860  0.2648020    0.00000       Uiso       1.00
      H188          H  0.3082030  0.7595300  0.1487360    0.00000       Uiso       1.00
      H189          H  0.7101610  0.8281140  0.2648020    0.00000       Uiso       1.00
      H190          H  0.8082030  0.7404700  0.1487360    0.00000       Uiso       1.00
      H191          H  0.2101610  0.3281140  0.2648020    0.00000       Uiso       1.00
      H192          H  0.3082030  0.2404700  0.1487360    0.00000       Uiso       1.00
      H193          H  0.2898390  0.8281140  0.7351980    0.00000       Uiso       1.00
      H194          H  0.1917970  0.7404700  0.8512640    0.00000       Uiso       1.00
      H195          H  0.7898380  0.3281140  0.7351980    0.00000       Uiso       1.00
      H196          H  0.6917970  0.2404700  0.8512640    0.00000       Uiso       1.00
