data_Py-MV-DBA-COF
_audit_creation_date              0000-00-00
_audit_creation_method            'LanYouShi'
_symmetry_space_group_name_H-M    'P1'
_cell_length_a                    44.5523987
_cell_length_b                    44.5523987
_cell_length_c                    3.5150001
_cell_angle_alpha                 90.0000000
_cell_angle_beta                  90.0000000
_cell_angle_gamma                 120.0000000
loop_
_atom_site_label
_atom_site_type_symbol
_atom_site_fract_x
_atom_site_fract_y
_atom_site_fract_z
_atom_site_U_iso_or_equiv
_atom_site_adp_type
_atom_site_occupancy
        C1          C  0.4450260  0.4997210  0.0000000    0.00000       Uiso       1.00
        C2          C  0.4270200  0.5182940  0.0000000    0.00000       Uiso       1.00
        C3          C  0.4270760  0.4631510  0.0000000    0.00000       Uiso       1.00
        H4          H  0.4004720  0.5050230  0.0000000    0.00000       Uiso       1.00
        H5          H  0.4005550  0.4494190  0.0000000    0.00000       Uiso       1.00
        C6          C  0.3830320  0.7973570  0.0000000    0.00000       Uiso       1.00
        C7          C  0.3512230  0.7662310  0.0000000    0.00000       Uiso       1.00
        C8          C  0.3211340  0.7056800  0.0000000    0.00000       Uiso       1.00
        C9          C  0.2943220  0.6788700  0.0000000    0.00000       Uiso       1.00
       C10          C  0.3511560  0.7344070  0.0000000    0.00000       Uiso       1.00
       H11          H  0.3287160  0.7671800  0.0000000    0.00000       Uiso       1.00
       O12          O  0.3886650  0.8300580  0.0000000    0.00000       Uiso       1.00
       C13          C  0.5370930  0.5181360  0.0000000    0.00000       Uiso       1.00
       C14          C  0.5550990  0.4995630  0.0000000    0.00000       Uiso       1.00
       C15          C  0.5550430  0.5547060  0.0000000    0.00000       Uiso       1.00
       H16          H  0.5816470  0.5128340  0.0000000    0.00000       Uiso       1.00
       H17          H  0.5815640  0.5684380  0.0000000    0.00000       Uiso       1.00
       C18          C  0.5991070  0.1669080  0.0000000    0.00000       Uiso       1.00
       C19          C  0.6309070  0.1980400  0.0000000    0.00000       Uiso       1.00
       C20          C  0.6610560  0.2585640  0.0000000    0.00000       Uiso       1.00
       C21          C  0.6881440  0.2850730  0.0000000    0.00000       Uiso       1.00
       C22          C  0.6309860  0.2298770  0.0000000    0.00000       Uiso       1.00
       H23          H  0.6534090  0.1970790  0.0000000    0.00000       Uiso       1.00
       O24          O  0.5934770  0.1342070  0.0000000    0.00000       Uiso       1.00
       C25          C  0.4818520  0.4628950  0.0000000    0.00000       Uiso       1.00
       C26          C  0.5004250  0.4448890  0.0000000    0.00000       Uiso       1.00
       C27          C  0.4452820  0.4449450  0.0000000    0.00000       Uiso       1.00
       H28          H  0.4871540  0.4183410  0.0000000    0.00000       Uiso       1.00
       H29          H  0.4315500  0.4184240  0.0000000    0.00000       Uiso       1.00
       C30          C  0.8330930  0.4009030  0.0000000    0.00000       Uiso       1.00
       C31          C  0.8019620  0.3691020  0.0000000    0.00000       Uiso       1.00
       C32          C  0.7414370  0.3389500  0.0000000    0.00000       Uiso       1.00
       C33          C  0.7149300  0.3118600  0.0000000    0.00000       Uiso       1.00
       C34          C  0.7701240  0.3690210  0.0000000    0.00000       Uiso       1.00
       H35          H  0.8029240  0.3466010  0.0000000    0.00000       Uiso       1.00
       O36          O  0.8657940  0.4065340  0.0000000    0.00000       Uiso       1.00
       C37          C  0.5002670  0.5549620  0.0000000    0.00000       Uiso       1.00
       C38          C  0.4816940  0.5729680  0.0000000    0.00000       Uiso       1.00
       C39          C  0.5368370  0.5729120  0.0000000    0.00000       Uiso       1.00
       H40          H  0.4949650  0.5995160  0.0000000    0.00000       Uiso       1.00
       H41          H  0.5505690  0.5994330  0.0000000    0.00000       Uiso       1.00
       C42          C  0.2026440  0.6169770  0.0000000    0.00000       Uiso       1.00
       C43          C  0.2337710  0.6487840  0.0000000    0.00000       Uiso       1.00
       C44          C  0.2655940  0.6488490  0.0000000    0.00000       Uiso       1.00
       H45          H  0.2328240  0.6712930  0.0000000    0.00000       Uiso       1.00
       O46          O  0.1699430  0.6113450  0.0000000    0.00000       Uiso       1.00
       B47          B  0.4258720  0.8517339  0.0000000    0.00000       Uiso       1.00
       B48          B  0.5562700  0.1125280  0.0000000    0.00000       Uiso       1.00
       C49          C  0.4451390  0.5548500  0.0000000    0.00000       Uiso       1.00
       C50          C  0.4818490  0.5181390  0.0000000    0.00000       Uiso       1.00
       C51          C  0.5369810  0.4630070  0.0000000    0.00000       Uiso       1.00
       C52          C  0.5002700  0.4997180  0.0000000    0.00000       Uiso       1.00
       C53          C  0.5002790  0.9453050  0.0000000    0.00000       Uiso       1.00
       C54          C  0.4817060  0.9087251  0.0000000    0.00000       Uiso       1.00
       C55          C  0.5368490  0.9639250  0.0000000    0.00000       Uiso       1.00
       H56          H  0.4949760  0.8954490  0.0000000    0.00000       Uiso       1.00
       H57          H  0.5505800  0.9511349  0.0000000    0.00000       Uiso       1.00
       C58          C  0.2026430  0.5856750  0.0000000    0.00000       Uiso       1.00
       C59          C  0.2337690  0.5849930  0.0000000    0.00000       Uiso       1.00
       C60          C  0.2943200  0.6154540  0.0000000    0.00000       Uiso       1.00
       C61          C  0.3211300  0.6154530  0.0000000    0.00000       Uiso       1.00
       C62          C  0.2655930  0.6167490  0.0000000    0.00000       Uiso       1.00
       H63          H  0.2328200  0.5615360  0.0000000    0.00000       Uiso       1.00
       O64          O  0.1699420  0.5586070  0.0000000    0.00000       Uiso       1.00
       C65          C  0.4818630  0.0189560  0.0000000    0.00000       Uiso       1.00
       C66          C  0.5004370  0.0555360  0.0000000    0.00000       Uiso       1.00
       C67          C  0.4452940  0.0003360  0.0000000    0.00000       Uiso       1.00
       H68          H  0.4871660  0.0688130  0.0000000    0.00000       Uiso       1.00
       H69          H  0.4315620  0.0131260  0.0000000    0.00000       Uiso       1.00
       C70          C  0.8330920  0.4322000  0.0000000    0.00000       Uiso       1.00
       C71          C  0.8019600  0.4328680  0.0000000    0.00000       Uiso       1.00
       C72          C  0.7414360  0.4024920  0.0000000    0.00000       Uiso       1.00
       C73          C  0.7149270  0.4030720  0.0000000    0.00000       Uiso       1.00
       C74          C  0.7701230  0.4011100  0.0000000    0.00000       Uiso       1.00
       H75          H  0.8029210  0.4563300  0.0000000    0.00000       Uiso       1.00
       O76          O  0.8657930  0.4592700  0.0000000    0.00000       Uiso       1.00
       C77          C  0.5371050  0.0189560  0.0000000    0.00000       Uiso       1.00
       C78          C  0.5551110  0.0555360  0.0000000    0.00000       Uiso       1.00
       C79          C  0.5550540  0.0003360  0.0000000    0.00000       Uiso       1.00
       H80          H  0.5816590  0.0688130  0.0000000    0.00000       Uiso       1.00
       H81          H  0.5815760  0.0131260  0.0000000    0.00000       Uiso       1.00
       C82          C  0.5990970  0.4321900  0.0000000    0.00000       Uiso       1.00
       C83          C  0.6308980  0.4328600  0.0000000    0.00000       Uiso       1.00
       C84          C  0.6610500  0.4024870  0.0000000    0.00000       Uiso       1.00
       C85          C  0.6881400  0.4030700  0.0000000    0.00000       Uiso       1.00
       C86          C  0.6309790  0.4011030  0.0000000    0.00000       Uiso       1.00
       H87          H  0.6533990  0.4563230  0.0000000    0.00000       Uiso       1.00
       O88          O  0.5934660  0.4592600  0.0000000    0.00000       Uiso       1.00
       C89          C  0.4450380  0.9453050  0.0000000    0.00000       Uiso       1.00
       C90          C  0.4270310  0.9087260  0.0000000    0.00000       Uiso       1.00
       C91          C  0.4270880  0.9639250  0.0000000    0.00000       Uiso       1.00
       H92          H  0.4004840  0.8954490  0.0000000    0.00000       Uiso       1.00
       H93          H  0.4005670  0.9511349  0.0000000    0.00000       Uiso       1.00
       C94          C  0.3830230  0.5856670  0.0000000    0.00000       Uiso       1.00
       C95          C  0.3512160  0.5849870  0.0000000    0.00000       Uiso       1.00
       C96          C  0.3511510  0.6167450  0.0000000    0.00000       Uiso       1.00
       H97          H  0.3287070  0.5615320  0.0000000    0.00000       Uiso       1.00
       O98          O  0.3886550  0.5585980  0.0000000    0.00000       Uiso       1.00
       B99          B  0.1482660  0.5741380  0.0000000    0.00000       Uiso       1.00
      B100          B  0.8874710  0.4437410  0.0000000    0.00000       Uiso       1.00
      C101          C  0.4451500  0.8902891  0.0000000    0.00000       Uiso       1.00
      C102          C  0.4818610  0.9637101  0.0000000    0.00000       Uiso       1.00
      C103          C  0.5369930  0.0739740  0.0000000    0.00000       Uiso       1.00
      C104          C  0.5002820  0.0005520  0.0000000    0.00000       Uiso       1.00
      C105          C  0.0546950  0.5549740  0.0000000    0.00000       Uiso       1.00
      C106          C  0.0912740  0.5729800  0.0000000    0.00000       Uiso       1.00
      C107          C  0.0360750  0.5729240  0.0000000    0.00000       Uiso       1.00
      H108          H  0.1045510  0.5995280  0.0000000    0.00000       Uiso       1.00
      H109          H  0.0488650  0.5994450  0.0000000    0.00000       Uiso       1.00
      C110          C  0.4143250  0.6169680  0.0000000    0.00000       Uiso       1.00
      C111          C  0.4150070  0.6487760  0.0000000    0.00000       Uiso       1.00
      C112          C  0.3845460  0.6788650  0.0000000    0.00000       Uiso       1.00
      C113          C  0.3845470  0.7056780  0.0000000    0.00000       Uiso       1.00
      C114          C  0.3832510  0.6488440  0.0000000    0.00000       Uiso       1.00
      H115          H  0.4384640  0.6712840  0.0000000    0.00000       Uiso       1.00
      O116          O  0.4413930  0.6113350  0.0000000    0.00000       Uiso       1.00
      C117          C  0.9810440  0.4629070  0.0000000    0.00000       Uiso       1.00
      C118          C  0.9444640  0.4449010  0.0000000    0.00000       Uiso       1.00
      C119          C  0.9996640  0.4449570  0.0000000    0.00000       Uiso       1.00
      H120          H  0.9311870  0.4183530  0.0000000    0.00000       Uiso       1.00
      H121          H  0.9868740  0.4184350  0.0000000    0.00000       Uiso       1.00
      C122          C  0.5678000  0.4008930  0.0000000    0.00000       Uiso       1.00
      C123          C  0.5671320  0.3690930  0.0000000    0.00000       Uiso       1.00
      C124          C  0.5975080  0.3389440  0.0000000    0.00000       Uiso       1.00
      C125          C  0.5969280  0.3118550  0.0000000    0.00000       Uiso       1.00
      C126          C  0.5988900  0.3690140  0.0000000    0.00000       Uiso       1.00
      H127          H  0.5436700  0.3465900  0.0000000    0.00000       Uiso       1.00
      O128          O  0.5407300  0.4065230  0.0000000    0.00000       Uiso       1.00
      C129          C  0.9810439  0.5181480  0.0000000    0.00000       Uiso       1.00
      C130          C  0.9444640  0.4995750  0.0000000    0.00000       Uiso       1.00
      C131          C  0.9996640  0.5547180  0.0000000    0.00000       Uiso       1.00
      H132          H  0.9311870  0.5128460  0.0000000    0.00000       Uiso       1.00
      H133          H  0.9868740  0.5684500  0.0000000    0.00000       Uiso       1.00
      C134          C  0.5678100  0.1669070  0.0000000    0.00000       Uiso       1.00
      C135          C  0.5671400  0.1980380  0.0000000    0.00000       Uiso       1.00
      C136          C  0.5975130  0.2585630  0.0000000    0.00000       Uiso       1.00
      C137          C  0.5969300  0.2850700  0.0000000    0.00000       Uiso       1.00
      C138          C  0.5988970  0.2298760  0.0000000    0.00000       Uiso       1.00
      H139          H  0.5436770  0.1970760  0.0000000    0.00000       Uiso       1.00
      O140          O  0.5407400  0.1342060  0.0000000    0.00000       Uiso       1.00
      C141          C  0.0546940  0.4997320  0.0000000    0.00000       Uiso       1.00
      C142          C  0.0912740  0.5183060  0.0000000    0.00000       Uiso       1.00
      C143          C  0.0360750  0.4631630  0.0000000    0.00000       Uiso       1.00
      H144          H  0.1045510  0.5050350  0.0000000    0.00000       Uiso       1.00
      H145          H  0.0488640  0.4494310  0.0000000    0.00000       Uiso       1.00
      C146          C  0.4143330  0.7973560  0.0000000    0.00000       Uiso       1.00
      C147          C  0.4150130  0.7662280  0.0000000    0.00000       Uiso       1.00
      C148          C  0.3832550  0.7344060  0.0000000    0.00000       Uiso       1.00
      H149          H  0.4384680  0.7671760  0.0000000    0.00000       Uiso       1.00
      O150          O  0.4414020  0.8300560  0.0000000    0.00000       Uiso       1.00
      B151          B  0.4258620  0.5741280  0.0000000    0.00000       Uiso       1.00
      B152          B  0.5562580  0.4437300  0.0000000    0.00000       Uiso       1.00
      C153          C  0.1097110  0.5548610  0.0000000    0.00000       Uiso       1.00
      C154          C  0.0362900  0.5181510  0.0000000    0.00000       Uiso       1.00
      C155          C  0.9260260  0.4630190  0.0000000    0.00000       Uiso       1.00
      C156          C  0.9994480  0.4997300  0.0000000    0.00000       Uiso       1.00
