data_RT-COF-1
_audit_creation_date              0000-00-00
_audit_creation_method            'LanYouShi'
_symmetry_space_group_name_H-M    'P1'
_cell_length_a                    18.4860992
_cell_length_b                    18.4860992
_cell_length_c                    3.4000001
_cell_angle_alpha                 90.0000000
_cell_angle_beta                  90.0000000
_cell_angle_gamma                 120.0000000
loop_
_atom_site_label
_atom_site_type_symbol
_atom_site_fract_x
_atom_site_fract_y
_atom_site_fract_z
_atom_site_U_iso_or_equiv
_atom_site_adp_type
_atom_site_occupancy
        C1          C  0.4209570  0.7009400  0.5427360    0.00000       Uiso       1.00
        C2          C  0.3812840  0.6140780  0.4761040    0.00000       Uiso       1.00
        C3          C  0.2863790  0.6957980  0.4888620    0.00000       Uiso       1.00
        C4          C  0.3744630  0.7432390  0.5480160    0.00000       Uiso       1.00
        C5          C  0.2942780  0.5684440  0.4156290    0.00000       Uiso       1.00
        C6          C  0.2460210  0.6084880  0.4238870    0.00000       Uiso       1.00
        C7          C  0.5057650  0.7358240  0.5950360    0.00000       Uiso       1.00
        C8          C  0.2627350  0.4844160  0.3573230    0.00000       Uiso       1.00
        C9          C  0.2328440  0.7276500  0.4866320    0.00000       Uiso       1.00
       N10          N  0.5667650  0.8128150  0.6987240    0.00000       Uiso       1.00
       N11          N  0.2486610  0.8061030  0.5600600    0.00000       Uiso       1.00
       N12          N  0.1846570  0.4243930  0.2618500    0.00000       Uiso       1.00
       C13          C  0.6858690  0.7892170  0.6266010    0.00000       Uiso       1.00
       C14          C  0.7729040  0.8256850  0.6090910    0.00000       Uiso       1.00
       C15          C  0.2296470  0.9203420  0.6403960    0.00000       Uiso       1.00
       C16          C  0.1794190  0.9571770  0.6357741    0.00000       Uiso       1.00
       C17          C  0.0727400  0.2918580  0.1329950    0.00000       Uiso       1.00
       C18          C  0.0356630  0.2048760  0.1478090    0.00000       Uiso       1.00
       C19          C  0.2046740  0.3039910  0.3379140    0.00000       Uiso       1.00
       C20          C  0.1661910  0.2172210  0.3662220    0.00000       Uiso       1.00
       C21          C  0.1085040  0.7871750  0.4608490    0.00000       Uiso       1.00
       C22          C  0.0590080  0.8249970  0.4499180    0.00000       Uiso       1.00
       C23          C  0.7004540  0.9218220  0.8345900    0.00000       Uiso       1.00
       C24          C  0.7872430  0.9567980  0.8286630    0.00000       Uiso       1.00
       H25          H  0.6504160  0.7272590  0.5571920    0.00000       Uiso       1.00
       H26          H  0.7968190  0.7891450  0.5192670    0.00000       Uiso       1.00
       H27          H  0.2914770  0.9568540  0.7114460    0.00000       Uiso       1.00
       H28          H  0.0372260  0.3173310  0.0461690    0.00000       Uiso       1.00
       H29          H  0.2669280  0.3384850  0.4034710    0.00000       Uiso       1.00
       H30          H  0.2021190  0.1931190  0.4620550    0.00000       Uiso       1.00
       H31          H  0.0808100  0.7248630  0.3974960    0.00000       Uiso       1.00
       H32          H  0.6762190  0.9584890  0.9202940    0.00000       Uiso       1.00
       H33          H  0.2066110  0.0188710  0.7105510    0.00000       Uiso       1.00
       H34          H  0.9750150  0.1707210  0.0585910    0.00000       Uiso       1.00
       H35          H  0.9975320  0.7892800  0.3730990    0.00000       Uiso       1.00
       H36          H  0.8221110  0.0170580  0.9223770    0.00000       Uiso       1.00
       C37          C  0.0448900  0.9504330  0.5120090    0.00000       Uiso       1.00
       C38          C  0.0393250  0.0789100  0.3730520    0.00000       Uiso       1.00
       C39          C  0.9127270  0.9513980  0.6113550    0.00000       Uiso       1.00
       C40          C  0.1948330  0.8349890  0.5514350    0.00000       Uiso       1.00
       C41          C  0.1569250  0.3421560  0.2412580    0.00000       Uiso       1.00
       C42          C  0.6487500  0.8382720  0.7203970    0.00000       Uiso       1.00
       C43          C  0.0935600  0.9109490  0.5337710    0.00000       Uiso       1.00
       C44          C  0.0799560  0.1655180  0.2866260    0.00000       Uiso       1.00
       C45          C  0.8257820  0.9114630  0.6921679    0.00000       Uiso       1.00
       C46          C  0.0812830  0.0329890  0.3681040    0.00000       Uiso       1.00
       C47          C  0.9549190  0.0356010  0.4885180    0.00000       Uiso       1.00
       C48          C  0.9602990  0.9107740  0.6328100    0.00000       Uiso       1.00
       H49          H  0.9332660  0.8516680  0.7440609    0.00000       Uiso       1.00
       H50          H  0.1401110  0.0604320  0.2542810    0.00000       Uiso       1.00
       H51          H  0.9229480  0.0668710  0.4824630    0.00000       Uiso       1.00
