data_SA-COF
_audit_creation_date              0000-00-00
_audit_creation_method            'LanYouShi'
_symmetry_space_group_name_H-M    'P1'
_cell_length_a                    18.5499992
_cell_length_b                    18.5499992
_cell_length_c                    3.7000000
_cell_angle_alpha                 90.0000000
_cell_angle_beta                  90.0000000
_cell_angle_gamma                 120.0000000
loop_
_atom_site_label
_atom_site_type_symbol
_atom_site_fract_x
_atom_site_fract_y
_atom_site_fract_z
_atom_site_U_iso_or_equiv
_atom_site_adp_type
_atom_site_occupancy
        C1          C  0.6130100  0.2461700  0.5000000    0.00000       Uiso       1.00
        C2          C  0.6992500  0.2796200  0.5000000    0.00000       Uiso       1.00
        C3          C  0.4917700  0.2726900  0.5000000    0.00000       Uiso       1.00
        N4          N  0.4385400  0.1954300  0.5000000    0.00000       Uiso       1.00
        C5          C  0.3519800  0.1597200  0.5000000    0.00000       Uiso       1.00
        C6          C  0.3063500  0.0739800  0.5000000    0.00000       Uiso       1.00
        C7          C  0.2210400  0.0344300  0.5000000    0.00000       Uiso       1.00
        C8          C  0.1794100  0.0809500  0.5000000    0.00000       Uiso       1.00
        C9          C  0.2281600  0.1686200  0.5000000    0.00000       Uiso       1.00
       C10          C  0.3130000  0.2073400  0.5000000    0.00000       Uiso       1.00
       C11          C  0.0872600  0.0394200  0.5000000    0.00000       Uiso       1.00
       C12          C  0.0467400  0.0854400  0.5000000    0.00000       Uiso       1.00
       H13          H  0.4711700  0.3173400  0.5000000    0.00000       Uiso       1.00
       H14          H  0.3373700  0.0376000  0.5000000    0.00000       Uiso       1.00
       H15          H  0.1914700  0.9678000  0.5000000    0.00000       Uiso       1.00
       H16          H  0.2047800  0.2110500  0.5000000    0.00000       Uiso       1.00
       H17          H  0.3459100  0.2744000  0.5000000    0.00000       Uiso       1.00
       H18          H  0.0819900  0.1505800  0.5000000    0.00000       Uiso       1.00
       C19          C  0.7538300  0.3668400  0.5000000    0.00000       Uiso       1.00
       C20          C  0.7203800  0.4196300  0.5000000    0.00000       Uiso       1.00
       O21          O  0.5648600  0.1583500  0.5000000    0.00000       Uiso       1.00
       C22          C  0.7273100  0.2190800  0.5000000    0.00000       Uiso       1.00
       N23          N  0.8045700  0.2431100  0.5000000    0.00000       Uiso       1.00
       C24          C  0.8402800  0.1922600  0.5000000    0.00000       Uiso       1.00
       C25          C  0.9260200  0.2323700  0.5000000    0.00000       Uiso       1.00
       C26          C  0.9655700  0.1866100  0.5000000    0.00000       Uiso       1.00
       C27          C  0.9190500  0.0984600  0.5000000    0.00000       Uiso       1.00
       C28          C  0.8313800  0.0595400  0.5000000    0.00000       Uiso       1.00
       C29          C  0.7926600  0.1056600  0.5000000    0.00000       Uiso       1.00
       C30          C  0.9605800  0.0478400  0.5000000    0.00000       Uiso       1.00
       C31          C  0.9145600  0.9613000  0.5000000    0.00000       Uiso       1.00
       H32          H  0.5028300  0.1245500  0.5000000    0.00000       Uiso       1.00
       H33          H  0.6826600  0.1538300  0.5000000    0.00000       Uiso       1.00
       H34          H  0.9624000  0.2997700  0.5000000    0.00000       Uiso       1.00
       H35          H  0.0322000  0.2236700  0.5000000    0.00000       Uiso       1.00
       H36          H  0.7889500  0.9937300  0.5000000    0.00000       Uiso       1.00
       H37          H  0.7256000  0.0715100  0.5000000    0.00000       Uiso       1.00
       H38          H  0.8494200  0.9314100  0.5000000    0.00000       Uiso       1.00
       C39          C  0.6331600  0.3869900  0.5000000    0.00000       Uiso       1.00
       C40          C  0.5803700  0.3007500  0.5000000    0.00000       Uiso       1.00
       C41          C  0.7809200  0.5082300  0.5000000    0.00000       Uiso       1.00
       N42          N  0.7568900  0.5614600  0.5000000    0.00000       Uiso       1.00
       C43          C  0.8077400  0.6480200  0.5000000    0.00000       Uiso       1.00
       C44          C  0.7676300  0.6936500  0.5000000    0.00000       Uiso       1.00
       C45          C  0.8133900  0.7789600  0.5000000    0.00000       Uiso       1.00
       C46          C  0.9015400  0.8205900  0.5000000    0.00000       Uiso       1.00
       C47          C  0.9404600  0.7718400  0.5000000    0.00000       Uiso       1.00
       C48          C  0.8943400  0.6870000  0.5000000    0.00000       Uiso       1.00
       C49          C  0.9521600  0.9127400  0.5000000    0.00000       Uiso       1.00
       C50          C  0.0387000  0.9532600  0.5000000    0.00000       Uiso       1.00
       H51          H  0.8461700  0.5288300  0.5000000    0.00000       Uiso       1.00
       H52          H  0.7002300  0.6626300  0.5000000    0.00000       Uiso       1.00
       H53          H  0.7763300  0.8085300  0.5000000    0.00000       Uiso       1.00
       H54          H  0.0062700  0.7952200  0.5000000    0.00000       Uiso       1.00
       H55          H  0.9284900  0.6540900  0.5000000    0.00000       Uiso       1.00
       H56          H  0.0685900  0.9180100  0.5000000    0.00000       Uiso       1.00
       H57          H  0.8242050  1.3941370  0.5000000    0.00000       Uiso       1.00
       H58          H  0.6058640  1.4300690  0.5000000    0.00000       Uiso       1.00
