data_SIOC-COF-5
_audit_creation_date              0000-00-00
_audit_creation_method            'LanYouShi'
_symmetry_space_group_name_H-M    'P1'
_cell_length_a                    16.0438995
_cell_length_b                    5.2694001
_cell_length_c                    15.1386995
_cell_angle_alpha                 90.0000000
_cell_angle_beta                  86.5990982
_cell_angle_gamma                 90.0000000
loop_
_atom_site_label
_atom_site_type_symbol
_atom_site_fract_x
_atom_site_fract_y
_atom_site_fract_z
_atom_site_U_iso_or_equiv
_atom_site_adp_type
_atom_site_occupancy
        C1          C  0.4680110  0.0760890  0.2687370    0.00000       Uiso       1.00
        C2          C  0.5319900  0.0760890  0.7312610    0.00000       Uiso       1.00
        C3          C  0.3994780  0.1182370  0.3297290    0.00000       Uiso       1.00
        C4          C  0.6005230  0.1182370  0.6702690    0.00000       Uiso       1.00
        C5          C  0.4142630  0.1333160  0.4206400    0.00000       Uiso       1.00
        C6          C  0.5857380  0.1333160  0.5793580    0.00000       Uiso       1.00
        C7          C  0.4936210  0.0809310  0.4536220    0.00000       Uiso       1.00
        C8          C  0.5063800  0.0809310  0.5463760    0.00000       Uiso       1.00
        C9          C  0.5596460  0.0283520  0.3893750    0.00000       Uiso       1.00
       C10          C  0.4403540  0.0283520  0.6106230    0.00000       Uiso       1.00
       C11          C  0.5492350  0.0389550  0.2972900    0.00000       Uiso       1.00
       C12          C  0.4507660  0.0389550  0.7027080    0.00000       Uiso       1.00
       H13          H  0.4587030  0.0750820  0.2023250    0.00000       Uiso       1.00
       H14          H  0.5412970  0.0750820  0.7976730    0.00000       Uiso       1.00
       H15          H  0.3650920  0.1816130  0.4633590    0.00000       Uiso       1.00
       H16          H  0.6349080  0.1816130  0.5366390    0.00000       Uiso       1.00
       H17          H  0.6174040 -0.0170540  0.4094680    0.00000       Uiso       1.00
       H18          H  0.3825970 -0.0170540  0.5905300    0.00000       Uiso       1.00
       C19          C  0.6172150  0.0231740  0.2340910    0.00000       Uiso       1.00
       C20          C  0.3827860  0.0231740  0.7659070    0.00000       Uiso       1.00
       N21          N  0.6948720 -0.0450790  0.2551230    0.00000       Uiso       1.00
       N22          N  0.3051280 -0.0450790  0.7448750    0.00000       Uiso       1.00
       N23          N  0.2945310  0.0180650  0.2291360    0.00000       Uiso       1.00
       N24          N  0.7054700  0.0180650  0.7708620    0.00000       Uiso       1.00
       C25          C  0.3178450  0.1436280  0.3016000    0.00000       Uiso       1.00
       C26          C  0.6821560  0.1436280  0.6983980    0.00000       Uiso       1.00
       H27          H  0.6078710  0.0694760  0.1696800    0.00000       Uiso       1.00
       H28          H  0.3921300  0.0694760  0.8303180    0.00000       Uiso       1.00
       H29          H  0.2752400  0.2497500  0.3384910    0.00000       Uiso       1.00
       H30          H  0.7247610  0.2497500  0.6615070    0.00000       Uiso       1.00
       C31          C  0.0017000 -0.0215830  0.9523470    0.00000       Uiso       1.00
       C32          C  0.9983010 -0.0215830  0.0476510    0.00000       Uiso       1.00
       C33          C  0.0783080 -0.0221770  0.8998680    0.00000       Uiso       1.00
       C34          C  0.0939250 -0.2053240  0.8323680    0.00000       Uiso       1.00
       C35          C  0.1698410 -0.2096860  0.7808430    0.00000       Uiso       1.00
       C36          C  0.2331790 -0.0328480  0.7962100    0.00000       Uiso       1.00
       C37          C  0.2178370  0.1538760  0.8621700    0.00000       Uiso       1.00
       C38          C  0.1411620  0.1603660  0.9120720    0.00000       Uiso       1.00
       H39          H  0.1315420  0.3001500  0.9578350    0.00000       Uiso       1.00
       H40          H  0.0499520 -0.3384160  0.8200850    0.00000       Uiso       1.00
       H41          H  0.1788240 -0.3443090  0.7324570    0.00000       Uiso       1.00
       H42          H  0.2617420  0.2887100  0.8736130    0.00000       Uiso       1.00
       C43          C  0.9216930 -0.0221770  0.1001300    0.00000       Uiso       1.00
       C44          C  0.9060760 -0.2053240  0.1676300    0.00000       Uiso       1.00
       C45          C  0.8301600 -0.2096860  0.2191550    0.00000       Uiso       1.00
       C46          C  0.7668220 -0.0328480  0.2037880    0.00000       Uiso       1.00
       C47          C  0.7821640  0.1538760  0.1378280    0.00000       Uiso       1.00
       C48          C  0.8588390  0.1603660  0.0879260    0.00000       Uiso       1.00
       H49          H  0.8684590  0.3001500  0.0421630    0.00000       Uiso       1.00
       H50          H  0.9500490 -0.3384160  0.1799130    0.00000       Uiso       1.00
       H51          H  0.8211770 -0.3443090  0.2675400    0.00000       Uiso       1.00
       H52          H  0.7382590  0.2887100  0.1263850    0.00000       Uiso       1.00
       C53          C  0.0715110 -0.0161680  0.0962650    0.00000       Uiso       1.00
       C54          C  0.0823500  0.1747250  0.1604600    0.00000       Uiso       1.00
       C55          C  0.1556610  0.1897600  0.2066980    0.00000       Uiso       1.00
       C56          C  0.2209620  0.0134800  0.1897440    0.00000       Uiso       1.00
       C57          C  0.2102180 -0.1802220  0.1272270    0.00000       Uiso       1.00
       C58          C  0.1361780 -0.1964480  0.0822560    0.00000       Uiso       1.00
       H59          H  0.0369380  0.3070540  0.1736940    0.00000       Uiso       1.00
       H60          H  0.1610380  0.3321750  0.2517830    0.00000       Uiso       1.00
       H61          H  0.2562580 -0.3118090  0.1140690    0.00000       Uiso       1.00
       H62          H  0.1300540 -0.3403220  0.0383650    0.00000       Uiso       1.00
       C63          C  0.9284900 -0.0161680  0.9037330    0.00000       Uiso       1.00
       C64          C  0.9176510  0.1747250  0.8395380    0.00000       Uiso       1.00
       C65          C  0.8443400  0.1897600  0.7933000    0.00000       Uiso       1.00
       C66          C  0.7790390  0.0134800  0.8102540    0.00000       Uiso       1.00
       C67          C  0.7897830 -0.1802220  0.8727710    0.00000       Uiso       1.00
       C68          C  0.8638230 -0.1964480  0.9177420    0.00000       Uiso       1.00
       H69          H  0.9630630  0.3070540  0.8263041    0.00000       Uiso       1.00
       H70          H  0.8389630  0.3321750  0.7482150    0.00000       Uiso       1.00
       H71          H  0.7437430 -0.3118090  0.8859290    0.00000       Uiso       1.00
       H72          H  0.8699470 -0.3403220  0.9616330    0.00000       Uiso       1.00
