data_SIOC-COF-6
_audit_creation_date              0000-00-00
_audit_creation_method            'LanYouShi'
_symmetry_space_group_name_H-M    'P1'
_cell_length_a                    22.6028996
_cell_length_b                    21.2437992
_cell_length_c                    5.7251000
_cell_angle_alpha                 77.1625977
_cell_angle_beta                  91.6745987
_cell_angle_gamma                 86.0238037
loop_
_atom_site_label
_atom_site_type_symbol
_atom_site_fract_x
_atom_site_fract_y
_atom_site_fract_z
_atom_site_U_iso_or_equiv
_atom_site_adp_type
_atom_site_occupancy
        H1          H  0.9533110  0.8869550  5.2566948    0.00000       Uiso       1.00
        C2          C  0.0591620  0.1637900  4.6183858    0.00000       Uiso       1.00
        C3          C  0.0309810  0.1056510  4.6526632    0.00000       Uiso       1.00
        H4          H  1.0382479  0.2050970  4.5129881    0.00000       Uiso       1.00
        H5          H  0.9904410  0.1066400  4.5692320    0.00000       Uiso       1.00
        C6          C  0.0445820  0.9067699  4.6201320    0.00000       Uiso       1.00
        C7          C  0.0687170  0.8447819  4.6076722    0.00000       Uiso       1.00
        H8          H  0.0183450  0.9335330  4.4797411    0.00000       Uiso       1.00
        H9          H  0.0575370  0.8271320  4.4621592    0.00000       Uiso       1.00
       C10          C  0.8708570  0.0662240  4.8429160    0.00000       Uiso       1.00
       C11          C  0.8406580  0.1240100  4.8705068    0.00000       Uiso       1.00
       H12          H  0.8497549  0.0404610  4.7398791    0.00000       Uiso       1.00
       H13          H  0.7992480  0.1374030  4.7900219    0.00000       Uiso       1.00
       C14          C  0.9006520  0.8291020  5.0977340    0.00000       Uiso       1.00
       C15          C  0.9311211  0.8844110  5.1022110    0.00000       Uiso       1.00
       H16          H  0.9016020  0.7928530  5.2496009    0.00000       Uiso       1.00
       H17          H -0.0071740  0.0690920  5.1867399    0.00000       Uiso       1.00
       C18          C  0.0564850  0.0472750  4.8030639    0.00000       Uiso       1.00
       C19          C  0.1138670  0.0494610  4.9071770    0.00000       Uiso       1.00
       C20          C  0.1429250  0.1070780  4.8701901    0.00000       Uiso       1.00
       C21          C  0.1154190  0.1652500  4.7280788    0.00000       Uiso       1.00
       H22          H  0.1354940  0.0095650  5.0157619    0.00000       Uiso       1.00
       H23          H  0.1838180  0.1063800  4.9523468    0.00000       Uiso       1.00
       C24          C  0.0244710  0.9905061  4.8469162    0.00000       Uiso       1.00
       C25          C  0.0551400  0.9316360  4.8252630    0.00000       Uiso       1.00
       C26          C  0.1079770  0.8079540  4.7919469    0.00000       Uiso       1.00
       C27          C  0.1206110  0.8338090  4.9925652    0.00000       Uiso       1.00
       C28          C  0.0938730  0.8942671  5.0103378    0.00000       Uiso       1.00
       H29          H  0.1027720  0.9105540  5.1612191    0.00000       Uiso       1.00
       H30          H  0.1491560  0.8085330  5.1286011    0.00000       Uiso       1.00
       C31          C  0.3385160  0.4861700  4.7355952    0.00000       Uiso       1.00
       C32          C  0.3704730  0.4565540  4.9524741    0.00000       Uiso       1.00
       C33          C  0.4319730  0.4615210  4.9769168    0.00000       Uiso       1.00
       C34          C  0.4630050  0.4956000  4.7836809    0.00000       Uiso       1.00
       C35          C  0.4309390  0.5255060  4.5672050    0.00000       Uiso       1.00
       C36          C  0.3693740  0.5210600  4.5437860    0.00000       Uiso       1.00
       C37          C  0.5631290  0.4736800  4.6531720    0.00000       Uiso       1.00
       C38          C  0.5248380  0.4993010  4.8057132    0.00000       Uiso       1.00
       C39          C  0.5497790  0.5284090  4.9808850    0.00000       Uiso       1.00
       C40          C  0.6115550  0.5315399  5.0037851    0.00000       Uiso       1.00
       C41          C  0.6500340  0.5054590  4.8527818    0.00000       Uiso       1.00
       C42          C  0.6249110  0.4766810  4.6766801    0.00000       Uiso       1.00
       N43          N  0.2788490  0.4806350  4.7109489    0.00000       Uiso       1.00
       C44          C  0.2420920  0.5357670  4.6950588    0.00000       Uiso       1.00
       C45          C  0.2466890  0.5739849  4.8673391    0.00000       Uiso       1.00
       C46          C  0.2102180  0.6313670  4.8484631    0.00000       Uiso       1.00
       C47          C  0.1672890  0.6525720  4.6570549    0.00000       Uiso       1.00
       C48          C  0.1619230  0.6138840  4.4867210    0.00000       Uiso       1.00
       C49          C  0.1987340  0.5565750  4.5052242    0.00000       Uiso       1.00
       C50          C  0.2920660  0.3745070  4.6116090    0.00000       Uiso       1.00
       C51          C  0.2579580  0.4215710  4.7032461    0.00000       Uiso       1.00
       C52          C  0.2016490  0.4044660  4.7892032    0.00000       Uiso       1.00
       C53          C  0.1806860  0.3438560  4.7846589    0.00000       Uiso       1.00
       C54          C  0.2158890  0.2970830  4.6980882    0.00000       Uiso       1.00
       C55          C  0.2718580  0.3134590  4.6108050    0.00000       Uiso       1.00
       C56          C  0.7197140  0.6148770  4.6317148    0.00000       Uiso       1.00
       C57          C  0.7317720  0.5676450  4.8475490    0.00000       Uiso       1.00
       N58          N  0.7102660  0.5078470  4.8760910    0.00000       Uiso       1.00
       C59          C  0.7676590  0.5831180  5.0300870    0.00000       Uiso       1.00
       C60          C  0.7916750  0.6436910  4.9960251    0.00000       Uiso       1.00
       C61          C  0.7804270  0.6906751  4.7783971    0.00000       Uiso       1.00
       C62          C  0.7436380  0.6753829  4.5977979    0.00000       Uiso       1.00
       C63          C  0.7304940  0.3922170  5.0518289    0.00000       Uiso       1.00
       C64          C  0.7479620  0.4522030  4.9185748    0.00000       Uiso       1.00
       C65          C  0.8057850  0.4520290  4.8279610    0.00000       Uiso       1.00
       C66          C  0.8437030  0.3950680  4.8650122    0.00000       Uiso       1.00
       C67          C  0.8246189  0.3353990  4.9891262    0.00000       Uiso       1.00
       C68          C  0.7676670  0.3347500  5.0842719    0.00000       Uiso       1.00
       C69          C  0.1310760  0.7106990  4.6317091    0.00000       Uiso       1.00
       C70          C  0.1974830  0.2348940  4.7030792    0.00000       Uiso       1.00
       C71          C  0.8048630  0.7512150  4.7355852    0.00000       Uiso       1.00
       C72          C  0.8617960  0.2785010  5.0093689    0.00000       Uiso       1.00
       N73          N  0.1356160  0.7494670  4.7888288    0.00000       Uiso       1.00
       N74          N  0.8387690  0.2222590  4.9965658    0.00000       Uiso       1.00
       N75          N  0.8406670  0.7687979  4.8997588    0.00000       Uiso       1.00
       N76          N  0.1395100  0.2229920  4.6984200    0.00000       Uiso       1.00
       H77          H  0.3489310  0.4312530  5.0936270    0.00000       Uiso       1.00
       H78          H  0.4539590  0.4395570  5.1361771    0.00000       Uiso       1.00
       H79          H  0.4520860  0.5509780  4.4250760    0.00000       Uiso       1.00
       H80          H  0.3471240  0.5430590  4.3854699    0.00000       Uiso       1.00
       H81          H  0.5463830  0.4522190  4.5247722    0.00000       Uiso       1.00
       H82          H  0.5231610  0.5478241  5.0925350    0.00000       Uiso       1.00
       H83          H  0.6284650  0.5527980  5.1322908    0.00000       Uiso       1.00
       H84          H  0.6516650  0.4577490  4.5640912    0.00000       Uiso       1.00
       H85          H  0.2769320  0.5601631  5.0089421    0.00000       Uiso       1.00
       H86          H  0.2157120  0.6574970  4.9765549    0.00000       Uiso       1.00
       H87          H  0.1312570  0.6272410  4.3459911    0.00000       Uiso       1.00
       H88          H  0.1939650  0.5300981  4.3777928    0.00000       Uiso       1.00
       H89          H  0.3326640  0.3841170  4.5441489    0.00000       Uiso       1.00
       H90          H  0.1752020  0.4360920  4.8589592    0.00000       Uiso       1.00
       H91          H  0.1397960  0.3339230  4.8491950    0.00000       Uiso       1.00
       H92          H  0.2985540  0.2810680  4.5451941    0.00000       Uiso       1.00
       H93          H  0.6938130  0.6051481  4.4964142    0.00000       Uiso       1.00
       H94          H  0.7766690  0.5500490  5.1889119    0.00000       Uiso       1.00
       H95          H  0.8177030  0.6528270  5.1320710    0.00000       Uiso       1.00
       H96          H  0.7340610  0.7080739  4.4382782    0.00000       Uiso       1.00
       H97          H  0.6899250  0.3896650  5.1264811    0.00000       Uiso       1.00
       H98          H  0.8209310  0.4936960  4.7305288    0.00000       Uiso       1.00
       H99          H  0.8849960  0.3974750  4.7959418    0.00000       Uiso       1.00
      H100          H  0.7527549  0.2924830  5.1784372    0.00000       Uiso       1.00
      H101          H  0.1010050  0.7240600  4.4892902    0.00000       Uiso       1.00
      H102          H  0.2291310  0.1976080  4.7084818    0.00000       Uiso       1.00
      H103          H  0.7952291  0.7827330  4.5738778    0.00000       Uiso       1.00
      H104          H  0.9068851  0.2808710  5.0182700    0.00000       Uiso       1.00
      C105          C  0.9287780  0.0456000  4.9471688    0.00000       Uiso       1.00
      C106          C  0.8678660  0.1642580  4.9989510    0.00000       Uiso       1.00
      C107          C  0.9237800  0.1428320  5.1159730    0.00000       Uiso       1.00
      C108          C  0.9528220  0.0835610  5.0959611    0.00000       Uiso       1.00
      H109          H  0.9437200  0.1705560  5.2149739    0.00000       Uiso       1.00
      C110          C  0.9624250  0.9909670  4.8984270    0.00000       Uiso       1.00
      C111          C  0.9312909  0.9353530  4.8965740    0.00000       Uiso       1.00
      C112          C  0.9007220  0.9290450  4.6849842    0.00000       Uiso       1.00
      C113          C  0.8693840  0.8743720  4.6815748    0.00000       Uiso       1.00
      C114          C  0.8690620  0.8235040  4.8881550    0.00000       Uiso       1.00
      H115          H  0.9009310  0.9644890  4.5311241    0.00000       Uiso       1.00
      H116          H  0.8471500  0.8723769  4.5261288    0.00000       Uiso       1.00
