data_Star-COF-1
_audit_creation_date              0000-00-00
_audit_creation_method            'LanYouShi'
_symmetry_space_group_name_H-M    'P1'
_cell_length_a                    38.5200005
_cell_length_b                    38.5200005
_cell_length_c                    3.3800001
_cell_angle_alpha                 90.0000000
_cell_angle_beta                  90.0000000
_cell_angle_gamma                 120.0000000
loop_
_atom_site_label
_atom_site_type_symbol
_atom_site_fract_x
_atom_site_fract_y
_atom_site_fract_z
_atom_site_U_iso_or_equiv
_atom_site_adp_type
_atom_site_occupancy
        C1          C  0.0207860  0.5419570  0.5000000    0.00000       Uiso       1.00
        C2          C  0.1486700  0.5929830  0.5000000    0.00000       Uiso       1.00
        C3          C  0.1839770  0.6293690  0.5000000    0.00000       Uiso       1.00
        C4          C  0.1835020  0.6654870  0.5000000    0.00000       Uiso       1.00
        C5          C  0.2192470  0.7021690  0.5000000    0.00000       Uiso       1.00
        C6          C  0.2566280  0.7038150  0.5000000    0.00000       Uiso       1.00
        C7          C  0.2559170  0.6667100  0.5000000    0.00000       Uiso       1.00
        C8          C  0.2205250  0.6291230  0.5000000    0.00000       Uiso       1.00
        O9          O  0.1104970  0.5873860  0.5000000    0.00000       Uiso       1.00
       H10          H  0.0365620  0.5744350  0.5000000    0.00000       Uiso       1.00
       H11          H  0.1553460  0.6654280  0.5000000    0.00000       Uiso       1.00
       H12          H  0.2166580  0.7287330  0.5000000    0.00000       Uiso       1.00
       H13          H  0.2830170  0.6668310  0.5000000    0.00000       Uiso       1.00
       C14          C  0.4580430  0.4788290  0.5000000    0.00000       Uiso       1.00
       C15          C  0.4070170  0.5556860  0.5000000    0.00000       Uiso       1.00
       C16          C  0.3706310  0.5546080  0.5000000    0.00000       Uiso       1.00
       C17          C  0.3345130  0.5180150  0.5000000    0.00000       Uiso       1.00
       C18          C  0.2978310  0.5170770  0.5000000    0.00000       Uiso       1.00
       C19          C  0.2961850  0.5528130  0.5000000    0.00000       Uiso       1.00
       C20          C  0.3332900  0.5892070  0.5000000    0.00000       Uiso       1.00
       C21          C  0.3708770  0.5914010  0.5000000    0.00000       Uiso       1.00
       O22          O  0.4126140  0.5231110  0.5000000    0.00000       Uiso       1.00
       H23          H  0.4255650  0.4621270  0.5000000    0.00000       Uiso       1.00
       H24          H  0.3345720  0.4899180  0.5000000    0.00000       Uiso       1.00
       H25          H  0.2712670  0.4879250  0.5000000    0.00000       Uiso       1.00
       H26          H  0.3331690  0.6161860  0.5000000    0.00000       Uiso       1.00
       C27          C  0.5211710  0.9792140  0.5000000    0.00000       Uiso       1.00
       C28          C  0.4443140  0.8513300  0.5000000    0.00000       Uiso       1.00
       C29          C  0.4453920  0.8160230  0.5000000    0.00000       Uiso       1.00
       C30          C  0.4819850  0.8164980  0.5000000    0.00000       Uiso       1.00
       C31          C  0.4829230  0.7807530  0.5000000    0.00000       Uiso       1.00
       C32          C  0.4471870  0.7433720  0.5000000    0.00000       Uiso       1.00
       C33          C  0.4107930  0.7440830  0.5000000    0.00000       Uiso       1.00
       C34          C  0.4085990  0.7794750  0.5000000    0.00000       Uiso       1.00
       O35          O  0.4768890  0.8895030  0.5000000    0.00000       Uiso       1.00
       H36          H  0.5378730  0.9634379  0.5000000    0.00000       Uiso       1.00
       H37          H  0.5100820  0.8446540  0.5000000    0.00000       Uiso       1.00
       H38          H  0.5120750  0.7833420  0.5000000    0.00000       Uiso       1.00
       H39          H  0.3838140  0.7169830  0.5000000    0.00000       Uiso       1.00
       C40          C  0.9792140  0.4580430  0.5000000    0.00000       Uiso       1.00
       C41          C  0.8513300  0.4070170  0.5000000    0.00000       Uiso       1.00
       C42          C  0.8160230  0.3706310  0.5000000    0.00000       Uiso       1.00
       C43          C  0.8164980  0.3345130  0.5000000    0.00000       Uiso       1.00
       C44          C  0.7807530  0.2978310  0.5000000    0.00000       Uiso       1.00
       C45          C  0.7433720  0.2961850  0.5000000    0.00000       Uiso       1.00
       C46          C  0.7440830  0.3332900  0.5000000    0.00000       Uiso       1.00
       C47          C  0.7794750  0.3708770  0.5000000    0.00000       Uiso       1.00
       O48          O  0.8895030  0.4126140  0.5000000    0.00000       Uiso       1.00
       H49          H  0.9634380  0.4255650  0.5000000    0.00000       Uiso       1.00
       H50          H  0.8446540  0.3345720  0.5000000    0.00000       Uiso       1.00
       H51          H  0.7833420  0.2712670  0.5000000    0.00000       Uiso       1.00
       H52          H  0.7169830  0.3331690  0.5000000    0.00000       Uiso       1.00
       C53          C  0.5419570  0.5211710  0.5000000    0.00000       Uiso       1.00
       C54          C  0.5929830  0.4443140  0.5000000    0.00000       Uiso       1.00
       C55          C  0.6293690  0.4453920  0.5000000    0.00000       Uiso       1.00
       C56          C  0.6654870  0.4819850  0.5000000    0.00000       Uiso       1.00
       C57          C  0.7021689  0.4829230  0.5000000    0.00000       Uiso       1.00
       C58          C  0.7038150  0.4471870  0.5000000    0.00000       Uiso       1.00
       C59          C  0.6667100  0.4107930  0.5000000    0.00000       Uiso       1.00
       C60          C  0.6291230  0.4085990  0.5000000    0.00000       Uiso       1.00
       O61          O  0.5873860  0.4768890  0.5000000    0.00000       Uiso       1.00
       H62          H  0.5744350  0.5378730  0.5000000    0.00000       Uiso       1.00
       H63          H  0.6654280  0.5100820  0.5000000    0.00000       Uiso       1.00
       H64          H  0.7287330  0.5120750  0.5000000    0.00000       Uiso       1.00
       H65          H  0.6668310  0.3838140  0.5000000    0.00000       Uiso       1.00
       C66          C  0.4788290  0.0207860  0.5000000    0.00000       Uiso       1.00
       C67          C  0.5556860  0.1486690  0.5000000    0.00000       Uiso       1.00
       C68          C  0.5546080  0.1839770  0.5000000    0.00000       Uiso       1.00
       C69          C  0.5180150  0.1835020  0.5000000    0.00000       Uiso       1.00
       C70          C  0.5170770  0.2192470  0.5000000    0.00000       Uiso       1.00
       C71          C  0.5528130  0.2566280  0.5000000    0.00000       Uiso       1.00
       C72          C  0.5892070  0.2559170  0.5000000    0.00000       Uiso       1.00
       C73          C  0.5914010  0.2205250  0.5000000    0.00000       Uiso       1.00
       O74          O  0.5231110  0.1104970  0.5000000    0.00000       Uiso       1.00
       H75          H  0.4621270  0.0365620  0.5000000    0.00000       Uiso       1.00
       H76          H  0.4899180  0.1553460  0.5000000    0.00000       Uiso       1.00
       H77          H  0.4879250  0.2166580  0.5000000    0.00000       Uiso       1.00
       H78          H  0.6161860  0.2830170  0.5000000    0.00000       Uiso       1.00
       C79          C  0.5419570  0.0207860  0.5000000    0.00000       Uiso       1.00
       C80          C  0.5929830  0.1486690  0.5000000    0.00000       Uiso       1.00
       C81          C  0.6293690  0.1839770  0.5000000    0.00000       Uiso       1.00
       C82          C  0.6654870  0.1835020  0.5000000    0.00000       Uiso       1.00
       C83          C  0.7021690  0.2192470  0.5000000    0.00000       Uiso       1.00
       C84          C  0.7038150  0.2566280  0.5000000    0.00000       Uiso       1.00
       C85          C  0.6667100  0.2559170  0.5000000    0.00000       Uiso       1.00
       C86          C  0.6291230  0.2205250  0.5000000    0.00000       Uiso       1.00
       O87          O  0.5873860  0.1104970  0.5000000    0.00000       Uiso       1.00
       H88          H  0.5744350  0.0365620  0.5000000    0.00000       Uiso       1.00
       H89          H  0.6654280  0.1553460  0.5000000    0.00000       Uiso       1.00
       H90          H  0.7287330  0.2166580  0.5000000    0.00000       Uiso       1.00
       H91          H  0.6668310  0.2830170  0.5000000    0.00000       Uiso       1.00
       C92          C  0.4788290  0.4580430  0.5000000    0.00000       Uiso       1.00
       C93          C  0.5556860  0.4070170  0.5000000    0.00000       Uiso       1.00
       C94          C  0.5546080  0.3706310  0.5000000    0.00000       Uiso       1.00
       C95          C  0.5180150  0.3345130  0.5000000    0.00000       Uiso       1.00
       C96          C  0.5170770  0.2978310  0.5000000    0.00000       Uiso       1.00
       C97          C  0.5528130  0.2961850  0.5000000    0.00000       Uiso       1.00
       C98          C  0.5892070  0.3332900  0.5000000    0.00000       Uiso       1.00
       C99          C  0.5914010  0.3708770  0.5000000    0.00000       Uiso       1.00
      O100          O  0.5231110  0.4126140  0.5000000    0.00000       Uiso       1.00
      H101          H  0.4621270  0.4255650  0.5000000    0.00000       Uiso       1.00
      H102          H  0.4899180  0.3345720  0.5000000    0.00000       Uiso       1.00
      H103          H  0.4879250  0.2712670  0.5000000    0.00000       Uiso       1.00
      H104          H  0.6161860  0.3331690  0.5000000    0.00000       Uiso       1.00
      C105          C  0.9792140  0.5211710  0.5000000    0.00000       Uiso       1.00
      C106          C  0.8513300  0.4443140  0.5000000    0.00000       Uiso       1.00
      C107          C  0.8160230  0.4453920  0.5000000    0.00000       Uiso       1.00
      C108          C  0.8164980  0.4819850  0.5000000    0.00000       Uiso       1.00
      C109          C  0.7807530  0.4829230  0.5000000    0.00000       Uiso       1.00
      C110          C  0.7433710  0.4471870  0.5000000    0.00000       Uiso       1.00
      C111          C  0.7440830  0.4107930  0.5000000    0.00000       Uiso       1.00
      C112          C  0.7794750  0.4085990  0.5000000    0.00000       Uiso       1.00
      O113          O  0.8895030  0.4768890  0.5000000    0.00000       Uiso       1.00
      H114          H  0.9634380  0.5378730  0.5000000    0.00000       Uiso       1.00
      H115          H  0.8446540  0.5100820  0.5000000    0.00000       Uiso       1.00
      H116          H  0.7833420  0.5120750  0.5000000    0.00000       Uiso       1.00
      H117          H  0.7169830  0.3838140  0.5000000    0.00000       Uiso       1.00
      C118          C  0.4580430  0.9792140  0.5000000    0.00000       Uiso       1.00
      C119          C  0.4070170  0.8513300  0.5000000    0.00000       Uiso       1.00
      C120          C  0.3706310  0.8160230  0.5000000    0.00000       Uiso       1.00
      C121          C  0.3345130  0.8164980  0.5000000    0.00000       Uiso       1.00
      C122          C  0.2978310  0.7807530  0.5000000    0.00000       Uiso       1.00
      C123          C  0.2961850  0.7433720  0.5000000    0.00000       Uiso       1.00
      C124          C  0.3332900  0.7440830  0.5000000    0.00000       Uiso       1.00
      C125          C  0.3708770  0.7794750  0.5000000    0.00000       Uiso       1.00
      O126          O  0.4126140  0.8895030  0.5000000    0.00000       Uiso       1.00
      H127          H  0.4255650  0.9634379  0.5000000    0.00000       Uiso       1.00
      H128          H  0.3345720  0.8446540  0.5000000    0.00000       Uiso       1.00
      H129          H  0.2712670  0.7833420  0.5000000    0.00000       Uiso       1.00
      H130          H  0.3331690  0.7169830  0.5000000    0.00000       Uiso       1.00
      C131          C  0.5211710  0.5419570  0.5000000    0.00000       Uiso       1.00
      C132          C  0.4443140  0.5929830  0.5000000    0.00000       Uiso       1.00
      C133          C  0.4453920  0.6293690  0.5000000    0.00000       Uiso       1.00
      C134          C  0.4819850  0.6654870  0.5000000    0.00000       Uiso       1.00
      C135          C  0.4829230  0.7021690  0.5000000    0.00000       Uiso       1.00
      C136          C  0.4471870  0.7038150  0.5000000    0.00000       Uiso       1.00
      C137          C  0.4107930  0.6667100  0.5000000    0.00000       Uiso       1.00
      C138          C  0.4085990  0.6291230  0.5000000    0.00000       Uiso       1.00
      O139          O  0.4768890  0.5873860  0.5000000    0.00000       Uiso       1.00
      H140          H  0.5378730  0.5744350  0.5000000    0.00000       Uiso       1.00
      H141          H  0.5100820  0.6654280  0.5000000    0.00000       Uiso       1.00
      H142          H  0.5120750  0.7287330  0.5000000    0.00000       Uiso       1.00
      H143          H  0.3838140  0.6668310  0.5000000    0.00000       Uiso       1.00
      C144          C  0.0207860  0.4788290  0.5000000    0.00000       Uiso       1.00
      C145          C  0.1486700  0.5556860  0.5000000    0.00000       Uiso       1.00
      C146          C  0.1839770  0.5546080  0.5000000    0.00000       Uiso       1.00
      C147          C  0.1835020  0.5180150  0.5000000    0.00000       Uiso       1.00
      C148          C  0.2192470  0.5170770  0.5000000    0.00000       Uiso       1.00
      C149          C  0.2566280  0.5528130  0.5000000    0.00000       Uiso       1.00
      C150          C  0.2559170  0.5892070  0.5000000    0.00000       Uiso       1.00
      C151          C  0.2205250  0.5914010  0.5000000    0.00000       Uiso       1.00
      O152          O  0.1104970  0.5231110  0.5000000    0.00000       Uiso       1.00
      H153          H  0.0365620  0.4621270  0.5000000    0.00000       Uiso       1.00
      H154          H  0.1553460  0.4899180  0.5000000    0.00000       Uiso       1.00
      H155          H  0.2166580  0.4879250  0.5000000    0.00000       Uiso       1.00
      H156          H  0.2830170  0.6161860  0.5000000    0.00000       Uiso       1.00
      C157          C  0.0414920  0.5207460  0.5000000    0.00000       Uiso       1.00
      B158          B  0.0872890  0.5436440  0.5000000    0.00000       Uiso       1.00
      C159          C  0.4792540  0.5207460  0.5000000    0.00000       Uiso       1.00
      B160          B  0.4563560  0.5436440  0.5000000    0.00000       Uiso       1.00
      C161          C  0.4792540  0.9585080  0.5000000    0.00000       Uiso       1.00
      B162          B  0.4563560  0.9127110  0.5000000    0.00000       Uiso       1.00
      C163          C  0.9585080  0.4792540  0.5000000    0.00000       Uiso       1.00
      B164          B  0.9127110  0.4563560  0.5000000    0.00000       Uiso       1.00
      C165          C  0.5207460  0.4792540  0.5000000    0.00000       Uiso       1.00
      B166          B  0.5436440  0.4563560  0.5000000    0.00000       Uiso       1.00
      C167          C  0.5207460  0.0414920  0.5000000    0.00000       Uiso       1.00
      B168          B  0.5436440  0.0872890  0.5000000    0.00000       Uiso       1.00
