data_Star-COF-2
_audit_creation_date              0000-00-00
_audit_creation_method            'LanYouShi'
_symmetry_space_group_name_H-M    'P1'
_cell_length_a                    46.3300018
_cell_length_b                    46.3300018
_cell_length_c                    3.4200001
_cell_angle_alpha                 90.0000000
_cell_angle_beta                  90.0000000
_cell_angle_gamma                 120.0000000
loop_
_atom_site_label
_atom_site_type_symbol
_atom_site_fract_x
_atom_site_fract_y
_atom_site_fract_z
_atom_site_U_iso_or_equiv
_atom_site_adp_type
_atom_site_occupancy
        C1          C  0.0188000  0.5639000  0.5000000    0.00000       Uiso       1.00
        C2          C  0.0365000  0.5461000  0.5000000    0.00000       Uiso       1.00
        C3          C  0.0721000  0.5639000  0.5000000    0.00000       Uiso       1.00
        C4          C  0.1802000  0.6067000  0.5000000    0.00000       Uiso       1.00
        C5          C  0.2109000  0.6373000  0.5000000    0.00000       Uiso       1.00
        C6          C  0.2110000  0.6682000  0.5000000    0.00000       Uiso       1.00
        C7          C  0.2394000  0.6966000  0.5000000    0.00000       Uiso       1.00
        C8          C  0.2703000  0.6966000  0.5000000    0.00000       Uiso       1.00
        C9          C  0.2703000  0.6658000  0.5000000    0.00000       Uiso       1.00
       C10          C  0.2418000  0.6373000  0.5000000    0.00000       Uiso       1.00
       O11          O  0.1438000  0.5987000  0.5000000    0.00000       Uiso       1.00
       H12          H  0.0320220  0.5908800  0.5000000    0.00000       Uiso       1.00
       H13          H  0.0858230  0.5909790  0.5000000    0.00000       Uiso       1.00
       H14          H  0.1876720  0.6683330  0.5000000    0.00000       Uiso       1.00
       H15          H  0.2374170  0.7187130  0.5000000    0.00000       Uiso       1.00
       H16          H  0.2926980  0.6665910  0.5000000    0.00000       Uiso       1.00
       C17          C  0.4361000  0.4549000  0.5000000    0.00000       Uiso       1.00
       C18          C  0.4539000  0.4904000  0.5000000    0.00000       Uiso       1.00
       C19          C  0.4361000  0.5082000  0.5000000    0.00000       Uiso       1.00
       C20          C  0.3933000  0.5735000  0.5000000    0.00000       Uiso       1.00
       C21          C  0.3627000  0.5736000  0.5000000    0.00000       Uiso       1.00
       C22          C  0.3318000  0.5428000  0.5000000    0.00000       Uiso       1.00
       C23          C  0.3034000  0.5428000  0.5000000    0.00000       Uiso       1.00
       C24          C  0.3034000  0.5737000  0.5000000    0.00000       Uiso       1.00
       C25          C  0.3342000  0.6045000  0.5000000    0.00000       Uiso       1.00
       C26          C  0.3627000  0.6045000  0.5000000    0.00000       Uiso       1.00
       O27          O  0.4013000  0.5451000  0.5000000    0.00000       Uiso       1.00
       H28          H  0.4091200  0.4411420  0.5000000    0.00000       Uiso       1.00
       H29          H  0.4090210  0.4948440  0.5000000    0.00000       Uiso       1.00
       H30          H  0.3316670  0.5193390  0.5000000    0.00000       Uiso       1.00
       H31          H  0.2812870  0.5187040  0.5000000    0.00000       Uiso       1.00
       H32          H  0.3334090  0.6261070  0.5000000    0.00000       Uiso       1.00
       C33          C  0.5451000  0.9811999  0.5000000    0.00000       Uiso       1.00
       C34          C  0.5096000  0.9635000  0.5000000    0.00000       Uiso       1.00
       C35          C  0.4918000  0.9279000  0.5000000    0.00000       Uiso       1.00
       C36          C  0.4265000  0.8198000  0.5000000    0.00000       Uiso       1.00
       C37          C  0.4264000  0.7891000  0.5000000    0.00000       Uiso       1.00
       C38          C  0.4572000  0.7890000  0.5000000    0.00000       Uiso       1.00
       C39          C  0.4572000  0.7606000  0.5000000    0.00000       Uiso       1.00
       C40          C  0.4263000  0.7297000  0.5000000    0.00000       Uiso       1.00
       C41          C  0.3955000  0.7297000  0.5000000    0.00000       Uiso       1.00
       C42          C  0.3955000  0.7582000  0.5000000    0.00000       Uiso       1.00
       O43          O  0.4549000  0.8562000  0.5000000    0.00000       Uiso       1.00
       H44          H  0.5588580  0.9679781  0.5000000    0.00000       Uiso       1.00
       H45          H  0.5051560  0.9141770  0.5000000    0.00000       Uiso       1.00
       H46          H  0.4806610  0.8123280  0.5000000    0.00000       Uiso       1.00
       H47          H  0.4812960  0.7625830  0.5000000    0.00000       Uiso       1.00
       H48          H  0.3738930  0.7073020  0.5000000    0.00000       Uiso       1.00
       C49          C  0.9812000  0.4361000  0.5000000    0.00000       Uiso       1.00
       C50          C  0.9635000  0.4539000  0.5000000    0.00000       Uiso       1.00
       C51          C  0.9279000  0.4361000  0.5000000    0.00000       Uiso       1.00
       C52          C  0.8198000  0.3933000  0.5000000    0.00000       Uiso       1.00
       C53          C  0.7891000  0.3627000  0.5000000    0.00000       Uiso       1.00
       C54          C  0.7890000  0.3318000  0.5000000    0.00000       Uiso       1.00
       C55          C  0.7606000  0.3034000  0.5000000    0.00000       Uiso       1.00
       C56          C  0.7297000  0.3034000  0.5000000    0.00000       Uiso       1.00
       C57          C  0.7297000  0.3342000  0.5000000    0.00000       Uiso       1.00
       C58          C  0.7582000  0.3627000  0.5000000    0.00000       Uiso       1.00
       O59          O  0.8562000  0.4013000  0.5000000    0.00000       Uiso       1.00
       H60          H  0.9679779  0.4091200  0.5000000    0.00000       Uiso       1.00
       H61          H  0.9141770  0.4090210  0.5000000    0.00000       Uiso       1.00
       H62          H  0.8123280  0.3316660  0.5000000    0.00000       Uiso       1.00
       H63          H  0.7625830  0.2812870  0.5000000    0.00000       Uiso       1.00
       H64          H  0.7073020  0.3334090  0.5000000    0.00000       Uiso       1.00
       C65          C  0.5639000  0.5451000  0.5000000    0.00000       Uiso       1.00
       C66          C  0.5461000  0.5096000  0.5000000    0.00000       Uiso       1.00
       C67          C  0.5639000  0.4918000  0.5000000    0.00000       Uiso       1.00
       C68          C  0.6067000  0.4265000  0.5000000    0.00000       Uiso       1.00
       C69          C  0.6373000  0.4264000  0.5000000    0.00000       Uiso       1.00
       C70          C  0.6682000  0.4572000  0.5000000    0.00000       Uiso       1.00
       C71          C  0.6966000  0.4572000  0.5000000    0.00000       Uiso       1.00
       C72          C  0.6966000  0.4263000  0.5000000    0.00000       Uiso       1.00
       C73          C  0.6658000  0.3955000  0.5000000    0.00000       Uiso       1.00
       C74          C  0.6373000  0.3955000  0.5000000    0.00000       Uiso       1.00
       O75          O  0.5987000  0.4549000  0.5000000    0.00000       Uiso       1.00
       H76          H  0.5908800  0.5588580  0.5000000    0.00000       Uiso       1.00
       H77          H  0.5909790  0.5051560  0.5000000    0.00000       Uiso       1.00
       H78          H  0.6683330  0.4806610  0.5000000    0.00000       Uiso       1.00
       H79          H  0.7187130  0.4812960  0.5000000    0.00000       Uiso       1.00
       H80          H  0.6665910  0.3738930  0.5000000    0.00000       Uiso       1.00
       C81          C  0.4549000  0.0188000  0.5000000    0.00000       Uiso       1.00
       C82          C  0.4904000  0.0365000  0.5000000    0.00000       Uiso       1.00
       C83          C  0.5082000  0.0721000  0.5000000    0.00000       Uiso       1.00
       C84          C  0.5735000  0.1802000  0.5000000    0.00000       Uiso       1.00
       C85          C  0.5736000  0.2109000  0.5000000    0.00000       Uiso       1.00
       C86          C  0.5428000  0.2110000  0.5000000    0.00000       Uiso       1.00
       C87          C  0.5428000  0.2394000  0.5000000    0.00000       Uiso       1.00
       C88          C  0.5737000  0.2703000  0.5000000    0.00000       Uiso       1.00
       C89          C  0.6045000  0.2703000  0.5000000    0.00000       Uiso       1.00
       C90          C  0.6045000  0.2418000  0.5000000    0.00000       Uiso       1.00
       O91          O  0.5451000  0.1438000  0.5000000    0.00000       Uiso       1.00
       H92          H  0.4411420  0.0320220  0.5000000    0.00000       Uiso       1.00
       H93          H  0.4948440  0.0858230  0.5000000    0.00000       Uiso       1.00
       H94          H  0.5193390  0.1876720  0.5000000    0.00000       Uiso       1.00
       H95          H  0.5187040  0.2374170  0.5000000    0.00000       Uiso       1.00
       H96          H  0.6261070  0.2926980  0.5000000    0.00000       Uiso       1.00
       C97          C  0.5639000  0.0188000  0.5000000    0.00000       Uiso       1.00
       C98          C  0.5461000  0.0365000  0.5000000    0.00000       Uiso       1.00
       C99          C  0.5639000  0.0721000  0.5000000    0.00000       Uiso       1.00
      C100          C  0.6067000  0.1802000  0.5000000    0.00000       Uiso       1.00
      C101          C  0.6373000  0.2109000  0.5000000    0.00000       Uiso       1.00
      C102          C  0.6682000  0.2110000  0.5000000    0.00000       Uiso       1.00
      C103          C  0.6966000  0.2394000  0.5000000    0.00000       Uiso       1.00
      C104          C  0.6966000  0.2703000  0.5000000    0.00000       Uiso       1.00
      C105          C  0.6658000  0.2703000  0.5000000    0.00000       Uiso       1.00
      C106          C  0.6373000  0.2418000  0.5000000    0.00000       Uiso       1.00
      O107          O  0.5987000  0.1438000  0.5000000    0.00000       Uiso       1.00
      H108          H  0.5908800  0.0320220  0.5000000    0.00000       Uiso       1.00
      H109          H  0.5909790  0.0858230  0.5000000    0.00000       Uiso       1.00
      H110          H  0.6683330  0.1876720  0.5000000    0.00000       Uiso       1.00
      H111          H  0.7187130  0.2374170  0.5000000    0.00000       Uiso       1.00
      H112          H  0.6665910  0.2926980  0.5000000    0.00000       Uiso       1.00
      C113          C  0.4549000  0.4361000  0.5000000    0.00000       Uiso       1.00
      C114          C  0.4904000  0.4539000  0.5000000    0.00000       Uiso       1.00
      C115          C  0.5082000  0.4361000  0.5000000    0.00000       Uiso       1.00
      C116          C  0.5735000  0.3933000  0.5000000    0.00000       Uiso       1.00
      C117          C  0.5736000  0.3627000  0.5000000    0.00000       Uiso       1.00
      C118          C  0.5428000  0.3318000  0.5000000    0.00000       Uiso       1.00
      C119          C  0.5428000  0.3034000  0.5000000    0.00000       Uiso       1.00
      C120          C  0.5737000  0.3034000  0.5000000    0.00000       Uiso       1.00
      C121          C  0.6045000  0.3342000  0.5000000    0.00000       Uiso       1.00
      C122          C  0.6045000  0.3627000  0.5000000    0.00000       Uiso       1.00
      O123          O  0.5451000  0.4013000  0.5000000    0.00000       Uiso       1.00
      H124          H  0.4411420  0.4091200  0.5000000    0.00000       Uiso       1.00
      H125          H  0.4948440  0.4090210  0.5000000    0.00000       Uiso       1.00
      H126          H  0.5193390  0.3316660  0.5000000    0.00000       Uiso       1.00
      H127          H  0.5187040  0.2812870  0.5000000    0.00000       Uiso       1.00
      H128          H  0.6261070  0.3334090  0.5000000    0.00000       Uiso       1.00
      C129          C  0.9812000  0.5451000  0.5000000    0.00000       Uiso       1.00
      C130          C  0.9635000  0.5096000  0.5000000    0.00000       Uiso       1.00
      C131          C  0.9279000  0.4918000  0.5000000    0.00000       Uiso       1.00
      C132          C  0.8198000  0.4265000  0.5000000    0.00000       Uiso       1.00
      C133          C  0.7891000  0.4264000  0.5000000    0.00000       Uiso       1.00
      C134          C  0.7890000  0.4572000  0.5000000    0.00000       Uiso       1.00
      C135          C  0.7606000  0.4572000  0.5000000    0.00000       Uiso       1.00
      C136          C  0.7297000  0.4263000  0.5000000    0.00000       Uiso       1.00
      C137          C  0.7297000  0.3955000  0.5000000    0.00000       Uiso       1.00
      C138          C  0.7582000  0.3955000  0.5000000    0.00000       Uiso       1.00
      O139          O  0.8562000  0.4549000  0.5000000    0.00000       Uiso       1.00
      H140          H  0.9679780  0.5588580  0.5000000    0.00000       Uiso       1.00
      H141          H  0.9141770  0.5051560  0.5000000    0.00000       Uiso       1.00
      H142          H  0.8123280  0.4806610  0.5000000    0.00000       Uiso       1.00
      H143          H  0.7625830  0.4812960  0.5000000    0.00000       Uiso       1.00
      H144          H  0.7073020  0.3738930  0.5000000    0.00000       Uiso       1.00
      C145          C  0.4361000  0.9811999  0.5000000    0.00000       Uiso       1.00
      C146          C  0.4539000  0.9635000  0.5000000    0.00000       Uiso       1.00
      C147          C  0.4361000  0.9279000  0.5000000    0.00000       Uiso       1.00
      C148          C  0.3933000  0.8198000  0.5000000    0.00000       Uiso       1.00
      C149          C  0.3627000  0.7891000  0.5000000    0.00000       Uiso       1.00
      C150          C  0.3318000  0.7890000  0.5000000    0.00000       Uiso       1.00
      C151          C  0.3034000  0.7606000  0.5000000    0.00000       Uiso       1.00
      C152          C  0.3034000  0.7297000  0.5000000    0.00000       Uiso       1.00
      C153          C  0.3342000  0.7297000  0.5000000    0.00000       Uiso       1.00
      C154          C  0.3627000  0.7582000  0.5000000    0.00000       Uiso       1.00
      O155          O  0.4013000  0.8562000  0.5000000    0.00000       Uiso       1.00
      H156          H  0.4091200  0.9679781  0.5000000    0.00000       Uiso       1.00
      H157          H  0.4090210  0.9141770  0.5000000    0.00000       Uiso       1.00
      H158          H  0.3316660  0.8123280  0.5000000    0.00000       Uiso       1.00
      H159          H  0.2812870  0.7625830  0.5000000    0.00000       Uiso       1.00
      H160          H  0.3334090  0.7073020  0.5000000    0.00000       Uiso       1.00
      C161          C  0.5451000  0.5639000  0.5000000    0.00000       Uiso       1.00
      C162          C  0.5096000  0.5461000  0.5000000    0.00000       Uiso       1.00
      C163          C  0.4918000  0.5639000  0.5000000    0.00000       Uiso       1.00
      C164          C  0.4265000  0.6067000  0.5000000    0.00000       Uiso       1.00
      C165          C  0.4264000  0.6373000  0.5000000    0.00000       Uiso       1.00
      C166          C  0.4572000  0.6682000  0.5000000    0.00000       Uiso       1.00
      C167          C  0.4572000  0.6966000  0.5000000    0.00000       Uiso       1.00
      C168          C  0.4263000  0.6966000  0.5000000    0.00000       Uiso       1.00
      C169          C  0.3955000  0.6658000  0.5000000    0.00000       Uiso       1.00
      C170          C  0.3955000  0.6373000  0.5000000    0.00000       Uiso       1.00
      O171          O  0.4549000  0.5987000  0.5000000    0.00000       Uiso       1.00
      H172          H  0.5588580  0.5908800  0.5000000    0.00000       Uiso       1.00
      H173          H  0.5051560  0.5909790  0.5000000    0.00000       Uiso       1.00
      H174          H  0.4806610  0.6683330  0.5000000    0.00000       Uiso       1.00
      H175          H  0.4812960  0.7187130  0.5000000    0.00000       Uiso       1.00
      H176          H  0.3738930  0.6665910  0.5000000    0.00000       Uiso       1.00
      C177          C  0.0188000  0.4549000  0.5000000    0.00000       Uiso       1.00
      C178          C  0.0365000  0.4904000  0.5000000    0.00000       Uiso       1.00
      C179          C  0.0721000  0.5082000  0.5000000    0.00000       Uiso       1.00
      C180          C  0.1802000  0.5735000  0.5000000    0.00000       Uiso       1.00
      C181          C  0.2109000  0.5736000  0.5000000    0.00000       Uiso       1.00
      C182          C  0.2110000  0.5428000  0.5000000    0.00000       Uiso       1.00
      C183          C  0.2394000  0.5428000  0.5000000    0.00000       Uiso       1.00
      C184          C  0.2703000  0.5737000  0.5000000    0.00000       Uiso       1.00
      C185          C  0.2703000  0.6045000  0.5000000    0.00000       Uiso       1.00
      C186          C  0.2418000  0.6045000  0.5000000    0.00000       Uiso       1.00
      O187          O  0.1438000  0.5451000  0.5000000    0.00000       Uiso       1.00
      H188          H  0.0320220  0.4411420  0.5000000    0.00000       Uiso       1.00
      H189          H  0.0858230  0.4948440  0.5000000    0.00000       Uiso       1.00
      H190          H  0.1876720  0.5193390  0.5000000    0.00000       Uiso       1.00
      H191          H  0.2374170  0.5187040  0.5000000    0.00000       Uiso       1.00
      H192          H  0.2926980  0.6261070  0.5000000    0.00000       Uiso       1.00
      C193          C  0.0165000  0.5082500  0.5000000    0.00000       Uiso       1.00
      C194          C  0.0876000  0.5438000  0.5000000    0.00000       Uiso       1.00
      B195          B  0.1213000  0.5606500  0.5000000    0.00000       Uiso       1.00
      C196          C  0.4917500  0.5082500  0.5000000    0.00000       Uiso       1.00
      C197          C  0.4562000  0.5438000  0.5000000    0.00000       Uiso       1.00
      B198          B  0.4393500  0.5606500  0.5000000    0.00000       Uiso       1.00
      C199          C  0.4917500  0.9835000  0.5000000    0.00000       Uiso       1.00
      C200          C  0.4562000  0.9124000  0.5000000    0.00000       Uiso       1.00
      B201          B  0.4393500  0.8787001  0.5000000    0.00000       Uiso       1.00
      C202          C  0.9835000  0.4917500  0.5000000    0.00000       Uiso       1.00
      C203          C  0.9124000  0.4562000  0.5000000    0.00000       Uiso       1.00
      B204          B  0.8787001  0.4393500  0.5000000    0.00000       Uiso       1.00
      C205          C  0.5082500  0.4917500  0.5000000    0.00000       Uiso       1.00
      C206          C  0.5438000  0.4562000  0.5000000    0.00000       Uiso       1.00
      B207          B  0.5606500  0.4393500  0.5000000    0.00000       Uiso       1.00
      C208          C  0.5082500  0.0165000  0.5000000    0.00000       Uiso       1.00
      C209          C  0.5438000  0.0876000  0.5000000    0.00000       Uiso       1.00
      B210          B  0.5606500  0.1213000  0.5000000    0.00000       Uiso       1.00
