data_TAPB-BMTTPA-COF
_audit_creation_date              0000-00-00
_audit_creation_method            'LanYouShi'
_symmetry_space_group_name_H-M    'P1'
_cell_length_a                    36.8566017
_cell_length_b                    36.8566017
_cell_length_c                    3.8278999
_cell_angle_alpha                 90.0000000
_cell_angle_beta                  90.0000000
_cell_angle_gamma                 120.0000000
loop_
_atom_site_label
_atom_site_type_symbol
_atom_site_fract_x
_atom_site_fract_y
_atom_site_fract_z
_atom_site_U_iso_or_equiv
_atom_site_adp_type
_atom_site_occupancy
        C1          C  0.2895900  0.6417500  0.5380500    0.00000       Uiso       1.00
        C2          C  0.3147100  0.6233800  0.5379400    0.00000       Uiso       1.00
        C3          C  0.2438800  0.6157400  0.5406000    0.00000       Uiso       1.00
        C4          C  0.3701500  0.5889700  0.3836600    0.00000       Uiso       1.00
        C5          C  0.3943800  0.5700700  0.3878200    0.00000       Uiso       1.00
        C6          C  0.4337800  0.5900700  0.5512100    0.00000       Uiso       1.00
        C7          C  0.4484400  0.6296600  0.7024200    0.00000       Uiso       1.00
        C8          C  0.4238500  0.6481300  0.6994000    0.00000       Uiso       1.00
        N9          N  0.4598900  0.5730000  0.5546500    0.00000       Uiso       1.00
       C10          C  0.4448700  0.5333100  0.5607300    0.00000       Uiso       1.00
       C11          C  0.4723400  0.5157400  0.5551300    0.00000       Uiso       1.00
       C12          C  0.4564800  0.4720600  0.5543400    0.00000       Uiso       1.00
       C13          C  0.4844900  0.4571700  0.5536900    0.00000       Uiso       1.00
       S14          S  0.4021600  0.4383000  0.5528300    0.00000       Uiso       1.00
       C15          C  0.6041700  0.6134600  0.5586000    0.00000       Uiso       1.00
       H16          H  0.3000700  0.5893500  0.5383100    0.00000       Uiso       1.00
       H17          H  0.3398400  0.5732500  0.2500200    0.00000       Uiso       1.00
       H18          H  0.3831100  0.5399400  0.2564400    0.00000       Uiso       1.00
       H19          H  0.4789700  0.6453300  0.8320800    0.00000       Uiso       1.00
       H20          H  0.4353800  0.6785200  0.8267800    0.00000       Uiso       1.00
       H21          H  0.4105900  0.5109500  0.5766800    0.00000       Uiso       1.00
       H22          H  0.4735000  0.4237000  0.5540700    0.00000       Uiso       1.00
       H23          H  0.5904600  0.6194500  0.3241400    0.00000       Uiso       1.00
       H24          H  0.6375200  0.6361100  0.5603200    0.00000       Uiso       1.00
       H25          H  0.5902500  0.6187500  0.7951900    0.00000       Uiso       1.00
       C26          C  0.3582500  0.6478400  0.5380500    0.00000       Uiso       1.00
       C27          C  0.3766200  0.6913300  0.5379400    0.00000       Uiso       1.00
       C28          C  0.3842600  0.6281400  0.5406000    0.00000       Uiso       1.00
       C29          C  0.4110300  0.7811800  0.3836600    0.00000       Uiso       1.00
       C30          C  0.4299300  0.8243100  0.3878200    0.00000       Uiso       1.00
       C31          C  0.4099300  0.8437100  0.5512100    0.00000       Uiso       1.00
       C32          C  0.3703400  0.8187800  0.7024200    0.00000       Uiso       1.00
       C33          C  0.3518700  0.7757200  0.6994000    0.00000       Uiso       1.00
       N34          N  0.4270000  0.8868900  0.5546500    0.00000       Uiso       1.00
       C35          C  0.4666900  0.9115600  0.5607300    0.00000       Uiso       1.00
       C36          C  0.4842600  0.9566000  0.5551300    0.00000       Uiso       1.00
       C37          C  0.5279400  0.9844200  0.5543400    0.00000       Uiso       1.00
       C38          C  0.5428300  0.0273200  0.5536900    0.00000       Uiso       1.00
       S39          S  0.5617000  0.9638600  0.5528300    0.00000       Uiso       1.00
       C40          C  0.3865400  0.9907100  0.5586000    0.00000       Uiso       1.00
       H41          H  0.4106500  0.7107200  0.5383100    0.00000       Uiso       1.00
       H42          H  0.4267500  0.7665900  0.2500200    0.00000       Uiso       1.00
       H43          H  0.4600600  0.8431700  0.2564400    0.00000       Uiso       1.00
       H44          H  0.3546700  0.8336400  0.8320800    0.00000       Uiso       1.00
       H45          H  0.3214800  0.7568600  0.8267800    0.00000       Uiso       1.00
       H46          H  0.4890500  0.8996400  0.5766800    0.00000       Uiso       1.00
       H47          H  0.5763000  0.0498000  0.5540700    0.00000       Uiso       1.00
       H48          H  0.3805500  0.9710100  0.3241400    0.00000       Uiso       1.00
       H49          H  0.3638900  0.0014100  0.5603200    0.00000       Uiso       1.00
       H50          H  0.3812500  0.9715000  0.7951900    0.00000       Uiso       1.00
       C51          C  0.3521600  0.7104100  0.5380500    0.00000       Uiso       1.00
       C52          C  0.3086700  0.6852900  0.5379400    0.00000       Uiso       1.00
       C53          C  0.3718600  0.7561200  0.5406000    0.00000       Uiso       1.00
       C54          C  0.2188200  0.6298500  0.3836600    0.00000       Uiso       1.00
       C55          C  0.1756900  0.6056200  0.3878200    0.00000       Uiso       1.00
       C56          C  0.1562900  0.5662200  0.5512100    0.00000       Uiso       1.00
       C57          C  0.1812200  0.5515600  0.7024200    0.00000       Uiso       1.00
       C58          C  0.2242800  0.5761500  0.6994000    0.00000       Uiso       1.00
       N59          N  0.1131100  0.5401100  0.5546500    0.00000       Uiso       1.00
       C60          C  0.0884400  0.5551300  0.5607300    0.00000       Uiso       1.00
       C61          C  0.0434000  0.5276600  0.5551300    0.00000       Uiso       1.00
       C62          C  0.0155800  0.5435200  0.5543400    0.00000       Uiso       1.00
       C63          C  0.9726800  0.5155100  0.5536900    0.00000       Uiso       1.00
       S64          S  0.0361400  0.5978400  0.5528300    0.00000       Uiso       1.00
       C65          C  0.0092900  0.3958300  0.5586000    0.00000       Uiso       1.00
       H66          H  0.2892800  0.6999300  0.5383100    0.00000       Uiso       1.00
       H67          H  0.2334100  0.6601600  0.2500200    0.00000       Uiso       1.00
       H68          H  0.1568300  0.6168900  0.2564400    0.00000       Uiso       1.00
       H69          H  0.1663600  0.5210300  0.8320800    0.00000       Uiso       1.00
       H70          H  0.2431400  0.5646200  0.8267800    0.00000       Uiso       1.00
       H71          H  0.1003600  0.5894100  0.5766800    0.00000       Uiso       1.00
       H72          H  0.9502000  0.5265000  0.5540700    0.00000       Uiso       1.00
       H73          H  0.0289900  0.4095400  0.3241400    0.00000       Uiso       1.00
       H74          H  0.9985900  0.3624800  0.5603200    0.00000       Uiso       1.00
       H75          H  0.0285000  0.4097500  0.7951900    0.00000       Uiso       1.00
       C76          C  0.7104100  0.3582500  0.5380500    0.00000       Uiso       1.00
       C77          C  0.6852900  0.3766200  0.5379400    0.00000       Uiso       1.00
       C78          C  0.7561200  0.3842600  0.5406000    0.00000       Uiso       1.00
       C79          C  0.6298500  0.4110300  0.3836600    0.00000       Uiso       1.00
       C80          C  0.6056200  0.4299300  0.3878200    0.00000       Uiso       1.00
       C81          C  0.5662200  0.4099300  0.5512100    0.00000       Uiso       1.00
       C82          C  0.5515600  0.3703400  0.7024200    0.00000       Uiso       1.00
       C83          C  0.5761500  0.3518700  0.6994000    0.00000       Uiso       1.00
       N84          N  0.5401100  0.4270000  0.5546500    0.00000       Uiso       1.00
       C85          C  0.5551300  0.4666900  0.5607300    0.00000       Uiso       1.00
       C86          C  0.5276600  0.4842600  0.5551300    0.00000       Uiso       1.00
       C87          C  0.5435200  0.5279400  0.5543400    0.00000       Uiso       1.00
       C88          C  0.5155100  0.5428300  0.5536900    0.00000       Uiso       1.00
       S89          S  0.5978400  0.5617000  0.5528300    0.00000       Uiso       1.00
       C90          C  0.3958300  0.3865400  0.5586000    0.00000       Uiso       1.00
       H91          H  0.6999300  0.4106500  0.5383100    0.00000       Uiso       1.00
       H92          H  0.6601600  0.4267500  0.2500200    0.00000       Uiso       1.00
       H93          H  0.6168900  0.4600600  0.2564400    0.00000       Uiso       1.00
       H94          H  0.5210300  0.3546700  0.8320800    0.00000       Uiso       1.00
       H95          H  0.5646200  0.3214800  0.8267800    0.00000       Uiso       1.00
       H96          H  0.5894100  0.4890500  0.5766800    0.00000       Uiso       1.00
       H97          H  0.5265000  0.5763000  0.5540700    0.00000       Uiso       1.00
       H98          H  0.4095400  0.3805500  0.3241400    0.00000       Uiso       1.00
       H99          H  0.3624800  0.3638900  0.5603200    0.00000       Uiso       1.00
      H100          H  0.4097500  0.3812500  0.7951900    0.00000       Uiso       1.00
      C101          C  0.6417500  0.3521600  0.5380500    0.00000       Uiso       1.00
      C102          C  0.6233800  0.3086700  0.5379400    0.00000       Uiso       1.00
      C103          C  0.6157400  0.3718600  0.5406000    0.00000       Uiso       1.00
      C104          C  0.5889700  0.2188200  0.3836600    0.00000       Uiso       1.00
      C105          C  0.5700700  0.1756900  0.3878200    0.00000       Uiso       1.00
      C106          C  0.5900700  0.1562900  0.5512100    0.00000       Uiso       1.00
      C107          C  0.6296600  0.1812200  0.7024200    0.00000       Uiso       1.00
      C108          C  0.6481300  0.2242800  0.6994000    0.00000       Uiso       1.00
      N109          N  0.5730000  0.1131100  0.5546500    0.00000       Uiso       1.00
      C110          C  0.5333100  0.0884400  0.5607300    0.00000       Uiso       1.00
      C111          C  0.5157400  0.0434000  0.5551300    0.00000       Uiso       1.00
      C112          C  0.4720600  0.0155800  0.5543400    0.00000       Uiso       1.00
      C113          C  0.4571700  0.9726800  0.5536900    0.00000       Uiso       1.00
      S114          S  0.4383000  0.0361400  0.5528300    0.00000       Uiso       1.00
      C115          C  0.6134600  0.0092900  0.5586000    0.00000       Uiso       1.00
      H116          H  0.5893500  0.2892800  0.5383100    0.00000       Uiso       1.00
      H117          H  0.5732500  0.2334100  0.2500200    0.00000       Uiso       1.00
      H118          H  0.5399400  0.1568300  0.2564400    0.00000       Uiso       1.00
      H119          H  0.6453300  0.1663600  0.8320800    0.00000       Uiso       1.00
      H120          H  0.6785200  0.2431400  0.8267800    0.00000       Uiso       1.00
      H121          H  0.5109500  0.1003600  0.5766800    0.00000       Uiso       1.00
      H122          H  0.4237000  0.9502000  0.5540700    0.00000       Uiso       1.00
      H123          H  0.6194500  0.0289900  0.3241400    0.00000       Uiso       1.00
      H124          H  0.6361100  0.9985900  0.5603200    0.00000       Uiso       1.00
      H125          H  0.6187500  0.0285000  0.7951900    0.00000       Uiso       1.00
      C126          C  0.6478400  0.2895900  0.5380500    0.00000       Uiso       1.00
      C127          C  0.6913300  0.3147100  0.5379400    0.00000       Uiso       1.00
      C128          C  0.6281400  0.2438800  0.5406000    0.00000       Uiso       1.00
      C129          C  0.7811800  0.3701500  0.3836600    0.00000       Uiso       1.00
      C130          C  0.8243100  0.3943800  0.3878200    0.00000       Uiso       1.00
      C131          C  0.8437100  0.4337800  0.5512100    0.00000       Uiso       1.00
      C132          C  0.8187800  0.4484400  0.7024200    0.00000       Uiso       1.00
      C133          C  0.7757200  0.4238500  0.6994000    0.00000       Uiso       1.00
      N134          N  0.8868900  0.4598900  0.5546500    0.00000       Uiso       1.00
      C135          C  0.9115600  0.4448700  0.5607300    0.00000       Uiso       1.00
      C136          C  0.9566000  0.4723400  0.5551300    0.00000       Uiso       1.00
      C137          C  0.9844200  0.4564800  0.5543400    0.00000       Uiso       1.00
      C138          C  0.0273200  0.4844900  0.5536900    0.00000       Uiso       1.00
      S139          S  0.9638600  0.4021600  0.5528300    0.00000       Uiso       1.00
      C140          C  0.9907100  0.6041700  0.5586000    0.00000       Uiso       1.00
      H141          H  0.7107200  0.3000700  0.5383100    0.00000       Uiso       1.00
      H142          H  0.7665900  0.3398400  0.2500200    0.00000       Uiso       1.00
      H143          H  0.8431700  0.3831100  0.2564400    0.00000       Uiso       1.00
      H144          H  0.8336400  0.4789700  0.8320800    0.00000       Uiso       1.00
      H145          H  0.7568600  0.4353800  0.8267800    0.00000       Uiso       1.00
      H146          H  0.8996400  0.4105900  0.5766800    0.00000       Uiso       1.00
      H147          H  0.0498000  0.4735000  0.5540700    0.00000       Uiso       1.00
      H148          H  0.9710100  0.5904600  0.3241400    0.00000       Uiso       1.00
      H149          H  0.0014100  0.6375200  0.5603200    0.00000       Uiso       1.00
      H150          H  0.9715000  0.5902500  0.7951900    0.00000       Uiso       1.00
