data_TAPB-PDA_COF
_audit_creation_date              0000-00-00
_audit_creation_method            'LanYouShi'
_symmetry_space_group_name_H-M    'P1'
_cell_length_a                    39.4509010
_cell_length_b                    39.4508018
_cell_length_c                    3.4000001
_cell_angle_alpha                 90.0000000
_cell_angle_beta                  90.0000000
_cell_angle_gamma                 120.0000992
loop_
_atom_site_label
_atom_site_type_symbol
_atom_site_fract_x
_atom_site_fract_y
_atom_site_fract_z
_atom_site_U_iso_or_equiv
_atom_site_adp_type
_atom_site_occupancy
        C1          C  0.3824830  0.4475720  1.4771160    0.00000       Uiso       1.00
        N2          N  0.4140030  0.4365270  1.4777100    0.00000       Uiso       1.00
        C3          C  0.4565630  0.4680200  1.4747360    0.00000       Uiso       1.00
        C4          C  0.4885310  0.4565070  1.4692950    0.00000       Uiso       1.00
        C5          C  0.5320020  0.4885170  1.4641320    0.00000       Uiso       1.00
        H6          H  0.3908480  0.4797220  1.4758332    0.00000       Uiso       1.00
        H7          H  0.4800270  0.4244050  1.4687960    0.00000       Uiso       1.00
        H8          H  0.5557270  0.4800170  1.4594500    0.00000       Uiso       1.00
        C9          C  0.6175400  0.5524390  1.4645290    0.00000       Uiso       1.00
       N10          N  0.5860010  0.5634660  1.4647740    0.00000       Uiso       1.00
       C11          C  0.5434340  0.5319790  1.4661540    0.00000       Uiso       1.00
       C12          C  0.5114620  0.5434980  1.4712980    0.00000       Uiso       1.00
       C13          C  0.4679900  0.5114820  1.4761260    0.00000       Uiso       1.00
       H14          H  0.6092030  0.5202960  1.4639200    0.00000       Uiso       1.00
       H15          H  0.5199620  0.5755930  1.4722500    0.00000       Uiso       1.00
       H16          H  0.4442620  0.5199790  1.4808220    0.00000       Uiso       1.00
       C17          C  0.0524840  0.4349980  1.4761560    0.00000       Uiso       1.00
       N18          N  0.0635290  0.4775630  1.4778020    0.00000       Uiso       1.00
       C19          C  0.0320370  0.4886310  1.4745150    0.00000       Uiso       1.00
       C20          C  0.0435520  0.5321140  1.4701520    0.00000       Uiso       1.00
       C21          C  0.0115440  0.5435760  1.4646749    0.00000       Uiso       1.00
       H22          H  0.0203350  0.4112140  1.4738420    0.00000       Uiso       1.00
       H23          H  0.0756540  0.5557120  1.4706790    0.00000       Uiso       1.00
       H24          H  0.0200450  0.5758040  1.4607919    0.00000       Uiso       1.00
       C25          C  0.9476230  0.5651930  1.4644201    0.00000       Uiso       1.00
       N26          N  0.9365970  0.5226270  1.4636140    0.00000       Uiso       1.00
       C27          C  0.9680830  0.5115460  1.4653060    0.00000       Uiso       1.00
       C28          C  0.9565620  0.4680540  1.4693720    0.00000       Uiso       1.00
       C29          C  0.9885760  0.4565960  1.4745129    0.00000       Uiso       1.00
       H30          H  0.9797660  0.5889990  1.4648421    0.00000       Uiso       1.00
       H31          H  0.9244670  0.4444580  1.4692981    0.00000       Uiso       1.00
       H32          H  0.9800780  0.4243700  1.4784110    0.00000       Uiso       1.00
       C33          C  0.0650590  0.1175750  1.4892490    0.00000       Uiso       1.00
       N34          N  0.0224940  0.0860550  1.4895300    0.00000       Uiso       1.00
       C35          C  0.0114260  0.0434960  1.4851919    0.00000       Uiso       1.00
       C36          C  0.9679460  0.0115290  1.4794390    0.00000       Uiso       1.00
       C37          C  0.9564860  0.9680610  1.4728860    0.00000       Uiso       1.00
       H38          H  0.0888440  0.1092110  1.4871720    0.00000       Uiso       1.00
       H39          H  0.9443480  0.0200330  1.4797361    0.00000       Uiso       1.00
       H40          H  0.9242600  0.9443359  1.4679710    0.00000       Uiso       1.00
       C41          C  0.9348700  0.8825230  1.4705271    0.00000       Uiso       1.00
       N42          N  0.9774360  0.9140620  1.4710869    0.00000       Uiso       1.00
       C43          C  0.9885160  0.9566289  1.4738311    0.00000       Uiso       1.00
       C44          C  0.0320050  0.9885991  1.4792869    0.00000       Uiso       1.00
       C45          C  0.0434620  0.0320680  1.4855049    0.00000       Uiso       1.00
       H46          H  0.9110640  0.8908590  1.4707130    0.00000       Uiso       1.00
       H47          H  0.0556010  0.9800990  1.4794430    0.00000       Uiso       1.00
       H48          H  0.0756860  0.0557950  1.4904341    0.00000       Uiso       1.00
       C49          C  0.6834390  0.6197130  1.4657500    0.00000       Uiso       1.00
       C50          C  0.7240660  0.6415880  1.4661260    0.00000       Uiso       1.00
       H51          H  0.6668130  0.6347620  1.4660569    0.00000       Uiso       1.00
       H52          H  0.7381760  0.6731980  1.4667180    0.00000       Uiso       1.00
       C53          C  0.8803490  0.5638180  1.4644650    0.00000       Uiso       1.00
       C54          C  0.8584740  0.5825700  1.4648490    0.00000       Uiso       1.00
       H55          H  0.8653000  0.5321430  1.4638730    0.00000       Uiso       1.00
       H56          H  0.8268640  0.5650700  1.4645470    0.00000       Uiso       1.00
       C57          C  0.9362450  0.8166230  1.4692600    0.00000       Uiso       1.00
       C58          C  0.9174920  0.7759960  1.4685000    0.00000       Uiso       1.00
       H59          H  0.9679200  0.8332500  1.4695450    0.00000       Uiso       1.00
       H60          H  0.9349920  0.7618860  1.4682100    0.00000       Uiso       1.00
       C61          C  0.8702910  0.8140750  1.4692820    0.00000       Uiso       1.00
       C62          C  0.8508040  0.7734190  1.4685220    0.00000       Uiso       1.00
       H63          H  0.8533770  0.8288240  1.4695830    0.00000       Uiso       1.00
       H64          H  0.8191340  0.7574100  1.4682491    0.00000       Uiso       1.00
       C65          C  0.9437540  0.6297710  1.4656640    0.00000       Uiso       1.00
       C66          C  0.9225850  0.6492580  1.4660610    0.00000       Uiso       1.00
       H67          H  0.9754170  0.6466860  1.4659550    0.00000       Uiso       1.00
       H68          H  0.9382460  0.6809280  1.4666520    0.00000       Uiso       1.00
       C69          C  0.6859870  0.5563080  1.4645300    0.00000       Uiso       1.00
       C70          C  0.7266430  0.5774770  1.4648930    0.00000       Uiso       1.00
       H71          H  0.6712380  0.5246450  1.4639370    0.00000       Uiso       1.00
       H72          H  0.7426530  0.5618160  1.4645751    0.00000       Uiso       1.00
       C73          C  0.8527140  0.7078910  1.4672620    0.00000       Uiso       1.00
       C74          C  0.9134230  0.8369340  1.4696739    0.00000       Uiso       1.00
       C75          C  0.8734651  0.7520000  1.4680860    0.00000       Uiso       1.00
       C76          C  0.7921710  0.6449150  1.4661170    0.00000       Uiso       1.00
       C77          C  0.6631280  0.5765800  1.4649431    0.00000       Uiso       1.00
       C78          C  0.7480630  0.6215570  1.4657160    0.00000       Uiso       1.00
       C79          C  0.8551470  0.6473480  1.4660970    0.00000       Uiso       1.00
       C80          C  0.9234820  0.5866400  1.4648570    0.00000       Uiso       1.00
       C81          C  0.8785050  0.6265970  1.4656730    0.00000       Uiso       1.00
       C82          C  0.8740640  0.6882810  1.4668620    0.00000       Uiso       1.00
       C83          C  0.8117810  0.6858750  1.4668829    0.00000       Uiso       1.00
       C84          C  0.8141870  0.6259980  1.4657300    0.00000       Uiso       1.00
       H85          H  0.7947640  0.7004970  1.4671820    0.00000       Uiso       1.00
       H86          H  0.7995660  0.5943590  1.4651390    0.00000       Uiso       1.00
       H87          H  0.9057040  0.7052990  1.4671550    0.00000       Uiso       1.00
       C88          C  0.3165650  0.3803160  1.4795830    0.00000       Uiso       1.00
       C89          C  0.2759370  0.3584580  1.4802990    0.00000       Uiso       1.00
       H90          H  0.3331780  0.3652550  1.4802760    0.00000       Uiso       1.00
       H91          H  0.2618130  0.3268470  1.4815340    0.00000       Uiso       1.00
       C92          C  0.1197410  0.4363360  1.4764020    0.00000       Uiso       1.00
       C93          C  0.1415990  0.4175660  1.4772699    0.00000       Uiso       1.00
       H94          H  0.1348020  0.4680110  1.4751680    0.00000       Uiso       1.00
       H95          H  0.1732100  0.4350540  1.4766929    0.00000       Uiso       1.00
       C96          C  0.0637210  0.1834930  1.4865360    0.00000       Uiso       1.00
       C97          C  0.0824910  0.2241210  1.4849509    0.00000       Uiso       1.00
       H98          H  0.0320450  0.1668800  1.4870770    0.00000       Uiso       1.00
       H99          H  0.0650030  0.2382440  1.4842929    0.00000       Uiso       1.00
      C100          C  0.1296570  0.1860050  1.4867280    0.00000       Uiso       1.00
      C101          C  0.1491610  0.2266610  1.4851449    0.00000       Uiso       1.00
      H102          H  0.1465590  0.1712430  1.4874098    0.00000       Uiso       1.00
      H103          H  0.1808320  0.2426580  1.4846299    0.00000       Uiso       1.00
      C104          C  0.0563160  0.3704000  1.4788259    0.00000       Uiso       1.00
      C105          C  0.0774680  0.3508960  1.4797220    0.00000       Uiso       1.00
      H106          H  0.0246530  0.3534980  1.4793780    0.00000       Uiso       1.00
      H107          H  0.0617950  0.3192260  1.4809520    0.00000       Uiso       1.00
      C108          C  0.3140520  0.4437400  1.4769670    0.00000       Uiso       1.00
      C109          C  0.2733960  0.4225880  1.4776540    0.00000       Uiso       1.00
      H110          H  0.3288150  0.4754040  1.4757320    0.00000       Uiso       1.00
      H111          H  0.2574000  0.4382620  1.4769380    0.00000       Uiso       1.00
      C112          C  0.1472880  0.2922080  1.4824450    0.00000       Uiso       1.00
      C113          C  0.0865250  0.1631640  1.4874730    0.00000       Uiso       1.00
      C114          C  0.1265190  0.2480990  1.4841630    0.00000       Uiso       1.00
      C115          C  0.2078490  0.3551680  1.4801300    0.00000       Uiso       1.00
      C116          C  0.3368940  0.4234500  1.4779021    0.00000       Uiso       1.00
      C117          C  0.2519580  0.3785080  1.4793680    0.00000       Uiso       1.00
      C118          C  0.1448890  0.3527690  1.4799460    0.00000       Uiso       1.00
      C119          C  0.0766070  0.4135320  1.4771450    0.00000       Uiso       1.00
      C120          C  0.1215490  0.3735380  1.4789889    0.00000       Uiso       1.00
      C121          C  0.1259550  0.3118350  1.4815429    0.00000       Uiso       1.00
      C122          C  0.1882220  0.3142080  1.4817240    0.00000       Uiso       1.00
      C123          C  0.1858490  0.3741020  1.4792531    0.00000       Uiso       1.00
      H124          H  0.2052270  0.2995730  1.4824010    0.00000       Uiso       1.00
      H125          H  0.2004850  0.4057420  1.4780190    0.00000       Uiso       1.00
      H126          H  0.0943150  0.2948310  1.4821000    0.00000       Uiso       1.00
