data_TAPB-TFP
_audit_creation_date              0000-00-00
_audit_creation_method            'LanYouShi'
_symmetry_space_group_name_H-M    'P1'
_cell_length_a                    17.9400997
_cell_length_b                    3.5300000
_cell_length_c                    19.0282001
_cell_angle_alpha                 90.0000000
_cell_angle_beta                  114.7657013
_cell_angle_gamma                 90.0000000
loop_
_atom_site_label
_atom_site_type_symbol
_atom_site_fract_x
_atom_site_fract_y
_atom_site_fract_z
_atom_site_U_iso_or_equiv
_atom_site_adp_type
_atom_site_occupancy
        C1          C  0.5307010  0.5000020  0.6066030    0.00000       Uiso       1.00
        C2          C  0.5475760  0.5000020  0.4828960    0.00000       Uiso       1.00
        C3          C  0.4073990  0.5000020  0.4795600    0.00000       Uiso       1.00
        C4          C  0.4442650  0.5000020  0.5620350    0.00000       Uiso       1.00
        C5          C  0.5809180  0.5000020  0.5654530    0.00000       Uiso       1.00
        C6          C  0.4604690  0.5000020  0.4411730    0.00000       Uiso       1.00
        C7          C  0.7934980  0.5000020  0.0717780    0.00000       Uiso       1.00
        C8          C  0.7815150  0.5000020  0.1997090    0.00000       Uiso       1.00
        C9          C  0.9217670  0.5000020  0.1972480    0.00000       Uiso       1.00
       C10          C  0.8802830  0.5000020  0.1151590    0.00000       Uiso       1.00
       C11          C  0.7479700  0.5000020  0.1176890    0.00000       Uiso       1.00
       C12          C  0.8685470  0.5000020  0.2353910    0.00000       Uiso       1.00
       O13          O  0.3986200  0.5000020  0.5973520    0.00000       Uiso       1.00
       O14          O  0.6574850  0.5000020  0.6033720    0.00000       Uiso       1.00
       O15          O  0.4291280  0.5000020  0.3686050    0.00000       Uiso       1.00
       H16          H  0.9153880  0.5000020  0.0855940    0.00000       Uiso       1.00
       H17          H  0.6866580  0.5000020  0.0901750    0.00000       Uiso       1.00
       H18          H  0.8946990  0.5000020  0.2930220    0.00000       Uiso       1.00
       C19          C  0.7544150  0.5000020  0.9880729    0.00000       Uiso       1.00
       C20          C  0.7319830  0.5000020  0.2433320    0.00000       Uiso       1.00
       C21          C  0.0102560  0.5000020  0.2391130    0.00000       Uiso       1.00
       C22          C  0.6673740  0.5000020  0.9449440    0.00000       Uiso       1.00
       C23          C  0.7666700  0.5000020  0.3259550    0.00000       Uiso       1.00
       C24          C  0.0656340  0.5000020  0.2027380    0.00000       Uiso       1.00
       C25          C  0.3200690  0.5000020  0.4405640    0.00000       Uiso       1.00
       C26          C  0.6027350  0.5000020  0.4465630    0.00000       Uiso       1.00
       C27          C  0.5620780  0.5000020  0.6889740    0.00000       Uiso       1.00
       C28          C  0.0503920  0.5000020  0.3216090    0.00000       Uiso       1.00
       C29          C  0.6442600  0.5000020  0.2082600    0.00000       Uiso       1.00
       C30          C  0.7988030  0.5000020  0.9408550    0.00000       Uiso       1.00
       C31          C  0.7602820  0.5000020  0.8592420    0.00000       Uiso       1.00
       C32          C  0.5964090  0.5000020  0.2511590    0.00000       Uiso       1.00
       C33          C  0.1359520  0.5000020  0.3634820    0.00000       Uiso       1.00
       N34          N  0.2729090  0.5000020  0.3629110    0.00000       Uiso       1.00
       N35          N  0.5821560  0.5000020  0.3692570    0.00000       Uiso       1.00
       N36          N  0.6423410  0.5000020  0.7401170    0.00000       Uiso       1.00
       C37          C  0.1519620  0.5000020  0.2446250    0.00000       Uiso       1.00
       C38          C  0.7194560  0.5000020  0.3691130    0.00000       Uiso       1.00
       C39          C  0.6285160  0.5000020  0.8636550    0.00000       Uiso       1.00
       H40          H  0.6279820  0.5000020  0.9706310    0.00000       Uiso       1.00
       H41          H  0.8280770  0.5000020  0.3588700    0.00000       Uiso       1.00
       H42          H  0.0452470  0.5000020  0.1442700    0.00000       Uiso       1.00
       H43          H  0.6636671  0.5000020  0.4818780    0.00000       Uiso       1.00
       H44          H  0.5202430  0.5000020  0.7120250    0.00000       Uiso       1.00
       H45          H  0.0196070  0.5000020  0.3556920    0.00000       Uiso       1.00
       H46          H  0.6114320  0.5000020  0.1499700    0.00000       Uiso       1.00
       H47          H  0.8610880  0.5000020  0.9639331    0.00000       Uiso       1.00
       C48          C  0.6743280  0.5000020  0.8189180    0.00000       Uiso       1.00
       C49          C  0.6330020  0.5000020  0.3324870    0.00000       Uiso       1.00
       C50          C  0.1891510  0.5000020  0.3260630    0.00000       Uiso       1.00
       H51          H  0.7955600  0.5000020  0.8286600    0.00000       Uiso       1.00
       H52          H  0.5337080  0.5000020  0.2226320    0.00000       Uiso       1.00
       H53          H  0.1584500  0.5000020  0.4222570    0.00000       Uiso       1.00
       H54          H  0.1885550  0.5000020  0.2153840    0.00000       Uiso       1.00
       H55          H  0.7496430  0.5000020  0.4278950    0.00000       Uiso       1.00
       H56          H  0.5660140  0.5000020  0.8378970    0.00000       Uiso       1.00
       H57          H  0.2893000  0.5000020  0.4747970    0.00000       Uiso       1.00
       H58          H  0.3020810  0.5000020  0.3302620    0.00000       Uiso       1.00
       H59          H  0.5241610  0.5000020  0.3362620    0.00000       Uiso       1.00
       H60          H  0.6816800  0.5000020  0.7178090    0.00000       Uiso       1.00
