data_TAPB-TFPB
_audit_creation_date              0000-00-00
_audit_creation_method            'LanYouShi'
_symmetry_space_group_name_H-M    'P1'
_cell_length_a                    26.4636002
_cell_length_b                    26.4636002
_cell_length_c                    3.5000000
_cell_angle_alpha                 90.0000000
_cell_angle_beta                  90.0000000
_cell_angle_gamma                 120.0000000
loop_
_atom_site_label
_atom_site_type_symbol
_atom_site_fract_x
_atom_site_fract_y
_atom_site_fract_z
_atom_site_U_iso_or_equiv
_atom_site_adp_type
_atom_site_occupancy
        C1          C  0.7304490  0.3659440  0.5000050    0.00000       Uiso       1.00
        C2          C  0.6340580  0.3645060  0.5000050    0.00000       Uiso       1.00
        C3          C  0.6354960  0.2695530  0.5000050    0.00000       Uiso       1.00
        C4          C  0.6973750  0.3039810  0.5000050    0.00000       Uiso       1.00
        C5          C  0.6960210  0.3933950  0.5000050    0.00000       Uiso       1.00
        C6          C  0.6066070  0.3026270  0.5000050    0.00000       Uiso       1.00
        C7          C  0.2700510  0.6419980  0.5000050    0.00000       Uiso       1.00
        C8          C  0.3580040  0.6280530  0.5000050    0.00000       Uiso       1.00
        C9          C  0.3719480  0.7299511  0.5000050    0.00000       Uiso       1.00
       C10          C  0.3101080  0.7030220  0.5000050    0.00000       Uiso       1.00
       C11          C  0.2969800  0.6070870  0.5000050    0.00000       Uiso       1.00
       C12          C  0.3929150  0.6898940  0.5000050    0.00000       Uiso       1.00
       H13          H  0.7205490  0.2774500  0.5000050    0.00000       Uiso       1.00
       H14          H  0.7225510  0.4431000  0.5000050    0.00000       Uiso       1.00
       H15          H  0.5569020  0.2794530  0.5000050    0.00000       Uiso       1.00
       H16          H  0.2932900  0.7351540  0.5000050    0.00000       Uiso       1.00
       H17          H  0.2648480  0.5581370  0.5000050    0.00000       Uiso       1.00
       H18          H  0.4418650  0.7067120  0.5000050    0.00000       Uiso       1.00
       C19          C  0.2073970  0.6175740  0.5000050    0.00000       Uiso       1.00
       C20          C  0.3824270  0.5898230  0.5000050    0.00000       Uiso       1.00
       C21          C  0.4101790  0.7926049  0.5000050    0.00000       Uiso       1.00
       C22          C  0.7935950  0.3982280  0.5000050    0.00000       Uiso       1.00
       C23          C  0.6017740  0.3953680  0.5000050    0.00000       Uiso       1.00
       C24          C  0.6046340  0.2064070  0.5000050    0.00000       Uiso       1.00
       C25          C  0.1801850  0.6525510  0.5000050    0.00000       Uiso       1.00
       C26          C  0.3474500  0.5276350  0.5000050    0.00000       Uiso       1.00
       C27          C  0.4723670  0.8198170  0.5000050    0.00000       Uiso       1.00
       C28          C  0.8283330  0.3707400  0.5000050    0.00000       Uiso       1.00
       C29          C  0.6292620  0.4575940  0.5000050    0.00000       Uiso       1.00
       C30          C  0.5424080  0.1716690  0.5000050    0.00000       Uiso       1.00
       C31          C  0.6335660  0.1730260  0.5000050    0.00000       Uiso       1.00
       C32          C  0.8269750  0.4605410  0.5000050    0.00000       Uiso       1.00
       C33          C  0.5394610  0.3664350  0.5000050    0.00000       Uiso       1.00
       C34          C  0.3892250  0.8329790  0.5000050    0.00000       Uiso       1.00
       C35          C  0.1670230  0.5562470  0.5000050    0.00000       Uiso       1.00
       C36          C  0.4437550  0.6107770  0.5000050    0.00000       Uiso       1.00
       C37          C  0.1193240  0.6292210  0.5000050    0.00000       Uiso       1.00
       C38          C  0.3707810  0.4901040  0.5000050    0.00000       Uiso       1.00
       C39          C  0.5098980  0.8806780  0.5000050    0.00000       Uiso       1.00
       C40          C  0.8897120  0.4018910  0.5000050    0.00000       Uiso       1.00
       C41          C  0.5981100  0.4878220  0.5000050    0.00000       Uiso       1.00
       C42          C  0.5121800  0.1102890  0.5000050    0.00000       Uiso       1.00
       C43          C  0.6038080  0.1116530  0.5000050    0.00000       Uiso       1.00
       C44          C  0.8883490  0.4921560  0.5000050    0.00000       Uiso       1.00
       C45          C  0.5078460  0.3961940  0.5000050    0.00000       Uiso       1.00
       C46          C  0.4260530  0.8939319  0.5000050    0.00000       Uiso       1.00
       C47          C  0.1060700  0.5321220  0.5000050    0.00000       Uiso       1.00
       C48          C  0.4678800  0.5739490  0.5000050    0.00000       Uiso       1.00
       C49          C  0.0811690  0.5684100  0.5000050    0.00000       Uiso       1.00
       C50          C  0.4315910  0.5127590  0.5000050    0.00000       Uiso       1.00
       C51          C  0.4872420  0.9188330  0.5000050    0.00000       Uiso       1.00
       C52          C  0.9208470  0.4631430  0.5000050    0.00000       Uiso       1.00
       C53          C  0.5368590  0.4577050  0.5000050    0.00000       Uiso       1.00
       C54          C  0.5422960  0.0791540  0.5000050    0.00000       Uiso       1.00
       C55          C  0.0205830  0.5464650  0.5000050    0.00000       Uiso       1.00
       C56          C  0.4535370  0.4741190  0.5000050    0.00000       Uiso       1.00
       C57          C  0.5258830  0.9794191  0.5000050    0.00000       Uiso       1.00
       N58          N  0.9799120  0.4892030  0.5000050    0.00000       Uiso       1.00
       N59          N  0.5107980  0.4907100  0.5000050    0.00000       Uiso       1.00
       N60          N  0.5092920  0.0200890  0.5000050    0.00000       Uiso       1.00
       H61          H  0.2080900  0.7021650  0.5000050    0.00000       Uiso       1.00
       H62          H  0.2978370  0.5059250  0.5000050    0.00000       Uiso       1.00
       H63          H  0.4940760  0.7919120  0.5000050    0.00000       Uiso       1.00
       H64          H  0.8064090  0.3211100  0.5000050    0.00000       Uiso       1.00
       H65          H  0.6788920  0.4853000  0.5000050    0.00000       Uiso       1.00
       H66          H  0.5147020  0.1935930  0.5000050    0.00000       Uiso       1.00
       H67          H  0.6832660  0.1961020  0.5000050    0.00000       Uiso       1.00
       H68          H  0.8038990  0.4871650  0.5000050    0.00000       Uiso       1.00
       H69          H  0.5128370  0.3167350  0.5000050    0.00000       Uiso       1.00
       H70          H  0.3402940  0.8162610  0.5000050    0.00000       Uiso       1.00
       H71          H  0.1837410  0.5240340  0.5000050    0.00000       Uiso       1.00
       H72          H  0.4759680  0.6597080  0.5000050    0.00000       Uiso       1.00
       H73          H  0.1004260  0.6596200  0.5000050    0.00000       Uiso       1.00
       H74          H  0.3403820  0.4408070  0.5000050    0.00000       Uiso       1.00
       H75          H  0.5591950  0.8995750  0.5000050    0.00000       Uiso       1.00
       H76          H  0.9149570  0.3773950  0.5000050    0.00000       Uiso       1.00
       H77          H  0.6226070  0.5375620  0.5000050    0.00000       Uiso       1.00
       H78          H  0.4624390  0.0850450  0.5000050    0.00000       Uiso       1.00
       H79          H  0.6294270  0.0875380  0.5000050    0.00000       Uiso       1.00
       H80          H  0.9124640  0.5418900  0.5000050    0.00000       Uiso       1.00
       H81          H  0.4581110  0.3705740  0.5000050    0.00000       Uiso       1.00
       H82          H  0.4065060  0.9237710  0.5000050    0.00000       Uiso       1.00
       H83          H  0.0762310  0.4827360  0.5000050    0.00000       Uiso       1.00
       H84          H  0.5172660  0.5934960  0.5000050    0.00000       Uiso       1.00
       H85          H  0.0027890  0.5777950  0.5000050    0.00000       Uiso       1.00
       H86          H  0.4222070  0.4249950  0.5000050    0.00000       Uiso       1.00
       H87          H  0.5750070  0.9972130  0.5000050    0.00000       Uiso       1.00
