data_TBI-COF
_audit_creation_date              0000-00-00
_audit_creation_method            'LanYouShi'
_symmetry_space_group_name_H-M    'P1'
_cell_length_a                    26.3673000
_cell_length_b                    26.3673000
_cell_length_c                    3.5249000
_cell_angle_alpha                 90.0000000
_cell_angle_beta                  90.0000000
_cell_angle_gamma                 120.0000000
loop_
_atom_site_label
_atom_site_type_symbol
_atom_site_fract_x
_atom_site_fract_y
_atom_site_fract_z
_atom_site_U_iso_or_equiv
_atom_site_adp_type
_atom_site_occupancy
        C1          C  0.0209270  0.5577480  0.5000000    0.00000       Uiso       1.00
        C2          C  0.4422510  0.4631780  0.5000000    0.00000       Uiso       1.00
        C3          C  0.5368210  0.9790720  0.5000000    0.00000       Uiso       1.00
        N4          N  0.9807330  0.4999190  0.5000000    0.00000       Uiso       1.00
        N5          N  0.5000800  0.4808140  0.5000000    0.00000       Uiso       1.00
        N6          N  0.5191850  0.0192650  0.5000000    0.00000       Uiso       1.00
        H7          H  0.0071730  0.5877580  0.5000000    0.00000       Uiso       1.00
        H8          H  0.4122400  0.4194140  0.5000000    0.00000       Uiso       1.00
        H9          H  0.5805850  0.9928260  0.5000000    0.00000       Uiso       1.00
       C10          C  0.1221240  0.6386400  0.5000000    0.00000       Uiso       1.00
       C11          C  0.3613590  0.4834830  0.5000000    0.00000       Uiso       1.00
       C12          C  0.5165160  0.8778750  0.5000000    0.00000       Uiso       1.00
       C13          C  0.1828360  0.6597310  0.5000000    0.00000       Uiso       1.00
       C14          C  0.3402680  0.5231040  0.5000000    0.00000       Uiso       1.00
       C15          C  0.4768950  0.8171630  0.5000000    0.00000       Uiso       1.00
       C16          C  0.8923080  0.4102200  0.5000000    0.00000       Uiso       1.00
       C17          C  0.5897780  0.4820870  0.5000000    0.00000       Uiso       1.00
       C18          C  0.5179120  0.1076910  0.5000000    0.00000       Uiso       1.00
       C19          C  0.8307090  0.3769220  0.5000000    0.00000       Uiso       1.00
       C20          C  0.6230760  0.4537870  0.5000000    0.00000       Uiso       1.00
       C21          C  0.5462120  0.1692900  0.5000000    0.00000       Uiso       1.00
       H22          H  0.1077560  0.6682580  0.5000000    0.00000       Uiso       1.00
       H23          H  0.3317400  0.4394970  0.5000000    0.00000       Uiso       1.00
       H24          H  0.5605020  0.8922430  0.5000000    0.00000       Uiso       1.00
       H25          H  0.2079490  0.7040730  0.5000000    0.00000       Uiso       1.00
       H26          H  0.2959250  0.5038740  0.5000000    0.00000       Uiso       1.00
       H27          H  0.4961240  0.7920500  0.5000000    0.00000       Uiso       1.00
       H28          H  0.9162010  0.3893270  0.5000000    0.00000       Uiso       1.00
       H29          H  0.6106720  0.5268740  0.5000000    0.00000       Uiso       1.00
       H30          H  0.4731250  0.0837980  0.5000000    0.00000       Uiso       1.00
       H31          H  0.8142180  0.3329060  0.5000000    0.00000       Uiso       1.00
       H32          H  0.6670930  0.4813120  0.5000000    0.00000       Uiso       1.00
       H33          H  0.5186870  0.1857800  0.5000000    0.00000       Uiso       1.00
       C34          C  0.4354720  0.8956330  0.5000000    0.00000       Uiso       1.00
       C35          C  0.1043660  0.5398380  0.5000000    0.00000       Uiso       1.00
       C36          C  0.4601600  0.5645260  0.5000000    0.00000       Uiso       1.00
       C37          C  0.3962820  0.8348281  0.5000000    0.00000       Uiso       1.00
       C38          C  0.1651710  0.5614530  0.5000000    0.00000       Uiso       1.00
       C39          C  0.4385450  0.6037160  0.5000000    0.00000       Uiso       1.00
       C40          C  0.6116150  0.1128730  0.5000000    0.00000       Uiso       1.00
       C41          C  0.8871250  0.4987410  0.5000000    0.00000       Uiso       1.00
       C42          C  0.5012570  0.3883840  0.5000000    0.00000       Uiso       1.00
       C43          C  0.6395130  0.1744630  0.5000000    0.00000       Uiso       1.00
       C44          C  0.8255350  0.4650500  0.5000000    0.00000       Uiso       1.00
       C45          C  0.5349490  0.3604860  0.5000000    0.00000       Uiso       1.00
       H46          H  0.4188810  0.9234100  0.5000000    0.00000       Uiso       1.00
       H47          H  0.0765890  0.4954690  0.5000000    0.00000       Uiso       1.00
       H48          H  0.5045290  0.5811180  0.5000000    0.00000       Uiso       1.00
       H49          H  0.3533390  0.8233650  0.5000000    0.00000       Uiso       1.00
       H50          H  0.1766340  0.5299730  0.5000000    0.00000       Uiso       1.00
       H51          H  0.4700250  0.6466600  0.5000000    0.00000       Uiso       1.00
       H52          H  0.6367730  0.0934750  0.5000000    0.00000       Uiso       1.00
       H53          H  0.9065240  0.5432990  0.5000000    0.00000       Uiso       1.00
       H54          H  0.4567000  0.3632250  0.5000000    0.00000       Uiso       1.00
       H55          H  0.6839480  0.1950100  0.5000000    0.00000       Uiso       1.00
       H56          H  0.8049890  0.4889380  0.5000000    0.00000       Uiso       1.00
       H57          H  0.5110610  0.3160500  0.5000000    0.00000       Uiso       1.00
       C58          C  0.3741330  0.7296170  0.5000000    0.00000       Uiso       1.00
       C59          C  0.2703810  0.6445140  0.5000000    0.00000       Uiso       1.00
       C60          C  0.3554850  0.6258660  0.5000000    0.00000       Uiso       1.00
       C61          C  0.4965170  0.9184090  0.5000000    0.00000       Uiso       1.00
       C62          C  0.0815890  0.5781070  0.5000000    0.00000       Uiso       1.00
       C63          C  0.4218920  0.5034810  0.5000000    0.00000       Uiso       1.00
       C64          C  0.4146860  0.7922010  0.5000000    0.00000       Uiso       1.00
       C65          C  0.2077980  0.6224840  0.5000000    0.00000       Uiso       1.00
       C66          C  0.3775150  0.5853130  0.5000000    0.00000       Uiso       1.00
       C67          C  0.3926270  0.6875310  0.5000000    0.00000       Uiso       1.00
       C68          C  0.3124680  0.7050951  0.5000000    0.00000       Uiso       1.00
       C69          C  0.2949040  0.6073720  0.5000000    0.00000       Uiso       1.00
       C70          C  0.6375160  0.2695530  0.5000000    0.00000       Uiso       1.00
       C71          C  0.7304460  0.3679630  0.5000000    0.00000       Uiso       1.00
       C72          C  0.6320360  0.3624830  0.5000000    0.00000       Uiso       1.00
       C73          C  0.5501470  0.0785560  0.5000000    0.00000       Uiso       1.00
       C74          C  0.9214430  0.4715910  0.5000000    0.00000       Uiso       1.00
       C75          C  0.5284080  0.4498520  0.5000000    0.00000       Uiso       1.00
       C76          C  0.6085200  0.2061270  0.5000000    0.00000       Uiso       1.00
       C77          C  0.7938720  0.4023930  0.5000000    0.00000       Uiso       1.00
       C78          C  0.5976060  0.3914790  0.5000000    0.00000       Uiso       1.00
       C79          C  0.6065820  0.3007100  0.5000000    0.00000       Uiso       1.00
       C80          C  0.6992890  0.3058720  0.5000000    0.00000       Uiso       1.00
       C81          C  0.6941270  0.3934160  0.5000000    0.00000       Uiso       1.00
       H82          H  0.4358150  0.7027250  0.5000000    0.00000       Uiso       1.00
       H83          H  0.5628180  0.2769440  0.5000000    0.00000       Uiso       1.00
       H84          H  0.2972740  0.7330900  0.5000000    0.00000       Uiso       1.00
       H85          H  0.7230540  0.2858730  0.5000000    0.00000       Uiso       1.00
       H86          H  0.2669090  0.5641830  0.5000000    0.00000       Uiso       1.00
       H87          H  0.7141260  0.4371810  0.5000000    0.00000       Uiso       1.00
