data_T-COF_2
_audit_creation_date              0000-00-00
_audit_creation_method            'LanYouShi'
_symmetry_space_group_name_H-M    'P1'
_cell_length_a                    21.9372005
_cell_length_b                    21.9372005
_cell_length_c                    3.4000001
_cell_angle_alpha                 90.0000000
_cell_angle_beta                  90.0000000
_cell_angle_gamma                 120.0000000
loop_
_atom_site_label
_atom_site_type_symbol
_atom_site_fract_x
_atom_site_fract_y
_atom_site_fract_z
_atom_site_U_iso_or_equiv
_atom_site_adp_type
_atom_site_occupancy
        O1          O  0.5491010  0.4720150  1.4705880    0.00000       Uiso       1.00
        O2          O  0.4229130  0.4508970  1.4705880    0.00000       Uiso       1.00
        O3          O  0.5279830  0.5770850  1.4705880    0.00000       Uiso       1.00
        B4          B  0.5750690  0.5478170  1.4705880    0.00000       Uiso       1.00
        B5          B  0.4727470  0.4249300  1.4705880    0.00000       Uiso       1.00
        B6          B  0.4521820  0.5272510  1.4705880    0.00000       Uiso       1.00
        O7          O  0.1175610  0.8613120  1.4728070    0.00000       Uiso       1.00
        O8          O  0.2437520  0.8824380  1.4726779    0.00000       Uiso       1.00
        O9          O  0.1386870  0.7562470  1.4725090    0.00000       Uiso       1.00
       B10          B  0.0915980  0.7855110  1.4726520    0.00000       Uiso       1.00
       B11          B  0.1939140  0.9084010  1.4728160    0.00000       Uiso       1.00
       B12          B  0.2144880  0.8060840  1.4725260    0.00000       Uiso       1.00
       C13          C  0.7703330  0.7133340  1.4711480    0.00000       Uiso       1.00
       C14          C  0.6520050  0.5968360  1.4708890    0.00000       Uiso       1.00
       S15          S  0.7185060  0.5718870  1.4713020    0.00000       Uiso       1.00
       C16          C  0.7948370  0.6583450  1.4713720    0.00000       Uiso       1.00
       C17          C  0.6885870  0.6781060  1.4709830    0.00000       Uiso       1.00
       C18          C  0.0146650  0.7364970  1.4723630    0.00000       Uiso       1.00
       S19          S  0.9481570  0.7614430  1.4720870    0.00000       Uiso       1.00
       C20          C  0.8718310  0.6749790  1.4718710    0.00000       Uiso       1.00
       C21          C  0.8963490  0.6200030  1.4718810    0.00000       Uiso       1.00
       C22          C  0.9780930  0.6552280  1.4719851    0.00000       Uiso       1.00
       H23          H  0.6590900  0.7087440  1.4708810    0.00000       Uiso       1.00
       H24          H  0.0075910  0.6246130  1.4718220    0.00000       Uiso       1.00
       H25          H  0.8077150  0.7726370  1.4711369    0.00000       Uiso       1.00
       H26          H  0.8589509  0.5606580  1.4717540    0.00000       Uiso       1.00
       C27          C  0.2866640  0.5569980  1.4711469    0.00000       Uiso       1.00
       C28          C  0.4031620  0.5551680  1.4708890    0.00000       Uiso       1.00
       S29          S  0.4281120  0.6466190  1.4713020    0.00000       Uiso       1.00
       C30          C  0.3416540  0.6364920  1.4713720    0.00000       Uiso       1.00
       C31          C  0.3218930  0.5104800  1.4709830    0.00000       Uiso       1.00
       C32          C  0.2635010  0.7781650  1.4723630    0.00000       Uiso       1.00
       S33          S  0.2385560  0.6867130  1.4720870    0.00000       Uiso       1.00
       C34          C  0.3250200  0.6968520  1.4718710    0.00000       Uiso       1.00
       C35          C  0.3799960  0.7763460  1.4718810    0.00000       Uiso       1.00
       C36          C  0.3447710  0.8228640  1.4719851    0.00000       Uiso       1.00
       H37          H  0.2912540  0.4503450  1.4708810    0.00000       Uiso       1.00
       H38          H  0.3753860  0.8829760  1.4718220    0.00000       Uiso       1.00
       H39          H  0.2273620  0.5350770  1.4711369    0.00000       Uiso       1.00
       H40          H  0.4393400  0.7982920  1.4717540    0.00000       Uiso       1.00
       C41          C  0.4430000  0.2296650  1.4711488    0.00000       Uiso       1.00
       C42          C  0.4448310  0.3479940  1.4708890    0.00000       Uiso       1.00
       S43          S  0.3533800  0.2814920  1.4713030    0.00000       Uiso       1.00
       C44          C  0.3635060  0.2051610  1.4713730    0.00000       Uiso       1.00
       C45          C  0.4895180  0.3114120  1.4709840    0.00000       Uiso       1.00
       C46          C  0.2218330  0.9853340  1.4723650    0.00000       Uiso       1.00
       S47          S  0.3132850  0.0518420  1.4720891    0.00000       Uiso       1.00
       C48          C  0.3031470  0.1281670  1.4718730    0.00000       Uiso       1.00
       C49          C  0.2236530  0.1036490  1.4718831    0.00000       Uiso       1.00
       C50          C  0.1771340  0.0219060  1.4719870    0.00000       Uiso       1.00
       H51          H  0.5496530  0.3409080  1.4708821    0.00000       Uiso       1.00
       H52          H  0.1170230  0.9924080  1.4718240    0.00000       Uiso       1.00
       H53          H  0.4649210  0.1922830  1.4711380    0.00000       Uiso       1.00
       H54          H  0.2017070  0.1410480  1.4717560    0.00000       Uiso       1.00
