data_T-COF-OH
_audit_creation_date              0000-00-00
_audit_creation_method            'LanYouShi'
_symmetry_space_group_name_H-M    'P1'
_cell_length_a                    45.0200005
_cell_length_b                    45.0200005
_cell_length_c                    3.7100000
_cell_angle_alpha                 90.0000000
_cell_angle_beta                  90.0000000
_cell_angle_gamma                 120.0000000
loop_
_atom_site_label
_atom_site_type_symbol
_atom_site_fract_x
_atom_site_fract_y
_atom_site_fract_z
_atom_site_U_iso_or_equiv
_atom_site_adp_type
_atom_site_occupancy
       xx1          C -0.0163600 -0.4708200 -0.2693200    0.00000       Uiso       1.00
       xx2          C -0.0384600 -0.5084700 -0.0503600    0.00000       Uiso       1.00
       xx3          C -0.0237300 -0.5274600  0.1571000    0.00000       Uiso       1.00
       xx4          C -0.0766200 -0.5278400 -0.0412700    0.00000       Uiso       1.00
       xx5          C -0.0951800 -0.5102500 -0.0373400    0.00000       Uiso       1.00
       xx6          C -0.1308700 -0.5280700 -0.0389900    0.00000       Uiso       1.00
       xx7          C -0.1486300 -0.5637900 -0.0441600    0.00000       Uiso       1.00
       xx8          C -0.1304600 -0.5817300 -0.0412100    0.00000       Uiso       1.00
       xx9          C -0.0947900 -0.5639400 -0.0390800    0.00000       Uiso       1.00
      xx10          O -0.0267000 -0.4556500 -0.4415400    0.00000       Uiso       1.00
      xx11          H -0.0808500 -0.4812200 -0.0327800    0.00000       Uiso       1.00
      xx12          H -0.1456300 -0.5135300 -0.0361200    0.00000       Uiso       1.00
      xx13          H -0.1447800 -0.6109500 -0.0405400    0.00000       Uiso       1.00
      xx14          H -0.0801700 -0.5786900 -0.0355300    0.00000       Uiso       1.00
      xx15          C -0.7361800 -0.3900200  0.0910800    0.00000       Uiso       1.00
      xx16          C -0.7050900 -0.3597100  0.1182400    0.00000       Uiso       1.00
      xx17          C -0.7049700 -0.3271800  0.0977200    0.00000       Uiso       1.00
      xx18          C -0.7361400 -0.3267800  0.0559700    0.00000       Uiso       1.00
      xx19          C -0.7655300 -0.3572000  0.0347900    0.00000       Uiso       1.00
      xx20          C -0.7655300 -0.3879100  0.0509900    0.00000       Uiso       1.00
      xx21          C -0.6740900 -0.2962300  0.1174200    0.00000       Uiso       1.00
      xx22          C -0.6427400 -0.2971000  0.1423900    0.00000       Uiso       1.00
      xx23          C -0.6423400 -0.3284500  0.1383800    0.00000       Uiso       1.00
      xx24          C -0.6741700 -0.3607000  0.1505700    0.00000       Uiso       1.00
      xx25          C -0.6736900 -0.3929600  0.1875700    0.00000       Uiso       1.00
      xx26          C -0.6423700 -0.3917400  0.1783200    0.00000       Uiso       1.00
      xx27          C -0.6115800 -0.3601000  0.1321400    0.00000       Uiso       1.00
      xx28          C -0.6106900 -0.3285000  0.1150300    0.00000       Uiso       1.00
      xx29          C -0.6125900 -0.2663400  0.1767100    0.00000       Uiso       1.00
      xx30          C -0.6134500 -0.2358400  0.1688200    0.00000       Uiso       1.00
      xx31          C -0.6428300 -0.2345000  0.1326800    0.00000       Uiso       1.00
      xx32          C -0.6732500 -0.2639000  0.1108100    0.00000       Uiso       1.00
      xx33          O -0.6385900 -0.2015700  0.1234300    0.00000       Uiso       1.00
      xx34          O -0.5858700 -0.2042100  0.1945400    0.00000       Uiso       1.00
      xx35          O -0.5827100 -0.3634300  0.1025000    0.00000       Uiso       1.00
      xx36          O -0.6382000 -0.4205400  0.1916600    0.00000       Uiso       1.00
      xx37          B -0.6023000 -0.1827200  0.1661600    0.00000       Uiso       1.00
      xx38          C -0.5818600 -0.1420100  0.1480700    0.00000       Uiso       1.00
      xx39          C -0.5474300 -0.1257900  0.2007400    0.00000       Uiso       1.00
      xx40          C -0.5286900 -0.0890100  0.1690800    0.00000       Uiso       1.00
      xx41          C -0.5439700 -0.0676900  0.0816600    0.00000       Uiso       1.00
      xx42          C -0.5788300 -0.0844500  0.0377700    0.00000       Uiso       1.00
      xx43          C -0.5976000 -0.1212600  0.0712300    0.00000       Uiso       1.00
      xx44          C -0.5234500 -0.0280500  0.0304400    0.00000       Uiso       1.00
      xx45          C -0.4873400 -0.0063400 -0.1375200    0.00000       Uiso       1.00
      xx46          C -0.5397800 -0.0114000  0.1429600    0.00000       Uiso       1.00
      xx47          B -0.6001000 -0.4019700  0.1391900    0.00000       Uiso       1.00
      xx48          O -0.7969400 -0.4151400  0.0147700    0.00000       Uiso       1.00
      xx49          B -0.8166600 -0.3968700 -0.0256600    0.00000       Uiso       1.00
      xx50          O -0.7970700 -0.3599800 -0.0100200    0.00000       Uiso       1.00
      xx51          C -0.3336500 -0.7169500 -0.1510000    0.00000       Uiso       1.00
      xx52          C -0.3329100 -0.6851200 -0.1398400    0.00000       Uiso       1.00
      xx53          C -0.3647100 -0.6848900 -0.1382400    0.00000       Uiso       1.00
      xx54          C -0.3952500 -0.7157000 -0.1659300    0.00000       Uiso       1.00
      xx55          C -0.3942600 -0.7456800 -0.1771900    0.00000       Uiso       1.00
      xx56          C -0.3644000 -0.7464500 -0.1654300    0.00000       Uiso       1.00
      xx57          C -0.3652100 -0.6541300 -0.1143200    0.00000       Uiso       1.00
      xx58          C -0.3331600 -0.6217100 -0.1341500    0.00000       Uiso       1.00
      xx59          C -0.3016700 -0.6219400 -0.1322700    0.00000       Uiso       1.00
      xx60          C -0.3016500 -0.6540300 -0.1289700    0.00000       Uiso       1.00
      xx61          C -0.2699600 -0.6538500 -0.1130000    0.00000       Uiso       1.00
      xx62          C -0.2401300 -0.6232300 -0.1015600    0.00000       Uiso       1.00
      xx63          C -0.2401800 -0.5928300 -0.1041600    0.00000       Uiso       1.00
      xx64          C -0.2700400 -0.5913300 -0.1182300    0.00000       Uiso       1.00
      xx65          C -0.3340500 -0.5901400 -0.1462200    0.00000       Uiso       1.00
      xx66          C -0.3657300 -0.5921700 -0.1082000    0.00000       Uiso       1.00
      xx67          C -0.3965500 -0.6240000 -0.0561000    0.00000       Uiso       1.00
      xx68          C -0.3971800 -0.6549300 -0.0615300    0.00000       Uiso       1.00
      xx69          O -0.4257000 -0.6215600  0.0025800    0.00000       Uiso       1.00
      xx70          O -0.3701800 -0.5640900 -0.0969800    0.00000       Uiso       1.00
      xx71          O -0.2083400 -0.5654300 -0.0783800    0.00000       Uiso       1.00
      xx72          O -0.2081500 -0.6200300 -0.0775200    0.00000       Uiso       1.00
      xx73          B -0.4084600 -0.5833500 -0.0219300    0.00000       Uiso       1.00
      xx74          C -0.4290400 -0.5643000  0.0159100    0.00000       Uiso       1.00
      xx75          C -0.4114200 -0.5259400 -0.1111900    0.00000       Uiso       1.00
      xx76          C -0.4298900 -0.5088000 -0.0898600    0.00000       Uiso       1.00
      xx77          C -0.4662500 -0.5297400  0.0680200    0.00000       Uiso       1.00
      xx78          C -0.4835500 -0.5683000  0.2042100    0.00000       Uiso       1.00
      xx79          C -0.4651900 -0.5854100  0.1744300    0.00000       Uiso       1.00
      xx80          C -0.4860600 -0.5114100  0.0825600    0.00000       Uiso       1.00
      xx81          C -0.4701800 -0.4773800  0.1326900    0.00000       Uiso       1.00
      xx82          C -0.4884900 -0.4597800  0.1357200    0.00000       Uiso       1.00
      xx83          C -0.5232000 -0.4756200  0.0875400    0.00000       Uiso       1.00
      xx84          C -0.5391200 -0.5097100  0.0387400    0.00000       Uiso       1.00
      xx85          C -0.5208200 -0.5273200  0.0358900    0.00000       Uiso       1.00
      xx86          C -0.5428000 -0.4569400  0.0942200    0.00000       Uiso       1.00
      xx87          C -0.5251800 -0.4183400 -0.0450100    0.00000       Uiso       1.00
      xx88          C -0.5433900 -0.4008600 -0.0271400    0.00000       Uiso       1.00
      xx89          C -0.5797000 -0.4215800  0.1210600    0.00000       Uiso       1.00
      xx90          C -0.5976000 -0.4599800  0.2523700    0.00000       Uiso       1.00
      xx91          C -0.5792900 -0.4775100  0.2436000    0.00000       Uiso       1.00
      xx92          B -0.1883200 -0.5832400 -0.0597900    0.00000       Uiso       1.00
      xx93          O -0.3685600 -0.7789200 -0.1720600    0.00000       Uiso       1.00
      xx94          B -0.4053600 -0.7981600 -0.1962000    0.00000       Uiso       1.00
      xx95          O -0.4221500 -0.7773000 -0.1991200    0.00000       Uiso       1.00
      xx96          H -0.7368200 -0.4159800  0.1024600    0.00000       Uiso       1.00
      xx97          H -0.7367800 -0.3013700  0.0401300    0.00000       Uiso       1.00
      xx98          H -0.6990300 -0.4197000  0.2247100    0.00000       Uiso       1.00
      xx99          H -0.5846800 -0.3025700  0.0823300    0.00000       Uiso       1.00
     xx100          H -0.5877800 -0.2668800  0.2106300    0.00000       Uiso       1.00
     xx101          H -0.6976300 -0.2623000  0.0875400    0.00000       Uiso       1.00
     xx102          H -0.5347000 -0.1427100  0.2696300    0.00000       Uiso       1.00
     xx103          H -0.5007500 -0.0760000  0.2141700    0.00000       Uiso       1.00
     xx104          H -0.5920200 -0.0679700 -0.0257300    0.00000       Uiso       1.00
     xx105          H -0.6258500 -0.1345500  0.0360000    0.00000       Uiso       1.00
     xx106          H -0.4734800 -0.0190800 -0.2338500    0.00000       Uiso       1.00
     xx107          O -0.5673800 -0.0273300  0.2789100    0.00000       Uiso       1.00
     xx108          H -0.3088900 -0.7180400 -0.1480000    0.00000       Uiso       1.00
     xx109          H -0.4204500 -0.7155900 -0.1787600    0.00000       Uiso       1.00
     xx110          H -0.2692300 -0.6789400 -0.1096800    0.00000       Uiso       1.00
     xx111          H -0.2694000 -0.5656300 -0.1186000    0.00000       Uiso       1.00
     xx112          H -0.3087000 -0.5632700 -0.1871600    0.00000       Uiso       1.00
     xx113          H -0.4232200 -0.6810200 -0.0238500    0.00000       Uiso       1.00
     xx114          H -0.3818900 -0.5086900 -0.2324000    0.00000       Uiso       1.00
     xx115          H -0.4155400 -0.4775600 -0.2009000    0.00000       Uiso       1.00
     xx116          H -0.5128300 -0.5859200  0.3404300    0.00000       Uiso       1.00
     xx117          H -0.4796300 -0.6166400  0.2793200    0.00000       Uiso       1.00
     xx118          O -0.4438800 -0.4647800  0.1815100    0.00000       Uiso       1.00
     xx119          H -0.4753000 -0.4322500  0.1775800    0.00000       Uiso       1.00
     xx120          O -0.5653500 -0.5222700 -0.0113800    0.00000       Uiso       1.00
     xx121          H -0.5340500 -0.5549100 -0.0045900    0.00000       Uiso       1.00
     xx122          H -0.4957700 -0.4013200 -0.1732400    0.00000       Uiso       1.00
     xx123          H -0.5287000 -0.3696100 -0.1334000    0.00000       Uiso       1.00
     xx124          H -0.6272300 -0.4770800  0.3669900    0.00000       Uiso       1.00
     xx125          H -0.5938700 -0.5087700  0.3581100    0.00000       Uiso       1.00
     xx126          C -0.4680300 -0.9691001 -0.1886000    0.00000       Uiso       1.00
     xx127          C -0.4843300 -0.9524500 -0.0749800    0.00000       Uiso       1.00
     xx128          C -0.5204400 -0.9741899  0.0933200    0.00000       Uiso       1.00
     xx129          C -0.4638000 -0.9128600 -0.1240000    0.00000       Uiso       1.00
     xx130          C -0.4287700 -0.8960599 -0.0852400    0.00000       Uiso       1.00
     xx131          C -0.4099700 -0.8593200 -0.1156900    0.00000       Uiso       1.00
     xx132          C -0.4258600 -0.8387300 -0.1828000    0.00000       Uiso       1.00
     xx133          C -0.4604700 -0.8549601 -0.2301800    0.00000       Uiso       1.00
     xx134          C -0.4792000 -0.8916200 -0.2030100    0.00000       Uiso       1.00
     xx135          O -0.4405000 -0.9531800 -0.3262300    0.00000       Uiso       1.00
     xx136          H -0.5342800 -0.9615000  0.1911800    0.00000       Uiso       1.00
     xx137          H -0.4157700 -0.9127400 -0.0284600    0.00000       Uiso       1.00
     xx138          H -0.3815600 -0.8459901 -0.0859000    0.00000       Uiso       1.00
     xx139          H -0.4734500 -0.8382701 -0.2911300    0.00000       Uiso       1.00
     xx140          H -0.5072400 -0.9046099 -0.2449500    0.00000       Uiso       1.00
     xx141          C -0.9878799 -0.5091600  0.1492600    0.00000       Uiso       1.00
     xx142          C -0.9657899 -0.4714800 -0.0690500    0.00000       Uiso       1.00
     xx143          C -0.9805000 -0.4525300 -0.2776200    0.00000       Uiso       1.00
     xx144          C -0.9277000 -0.4520400 -0.0735200    0.00000       Uiso       1.00
     xx145          C -0.9091000 -0.4697100 -0.0679200    0.00000       Uiso       1.00
     xx146          C -0.8736000 -0.4519500 -0.0574500    0.00000       Uiso       1.00
     xx147          C -0.8560400 -0.4161700 -0.0539100    0.00000       Uiso       1.00
     xx148          C -0.8741900 -0.3980800 -0.0682400    0.00000       Uiso       1.00
     xx149          C -0.9096900 -0.4158400 -0.0781200    0.00000       Uiso       1.00
     xx150          O -0.9776100 -0.5243400  0.3226200    0.00000       Uiso       1.00
     xx151          H -0.9232300 -0.4987600 -0.0719800    0.00000       Uiso       1.00
     xx152          H -0.8588200 -0.4665700 -0.0517600    0.00000       Uiso       1.00
     xx153          H -0.8599900 -0.3687600 -0.0718800    0.00000       Uiso       1.00
     xx154          H -0.9243300 -0.4010000 -0.0900200    0.00000       Uiso       1.00
     xx155          H -0.0132600 -0.4275100 -0.4335900    0.00000       Uiso       1.00
     xx156          H -0.5728400 -0.0135100  0.4524400    0.00000       Uiso       1.00
     xx157          H -0.4407300 -0.4468800  0.3476800    0.00000       Uiso       1.00
     xx158          H -0.5802600 -0.5130300  0.1210600    0.00000       Uiso       1.00
     xx159          H -0.4269800 -0.9284200 -0.2466700    0.00000       Uiso       1.00
     xx160          H -0.9571700 -0.5065800  0.4489900    0.00000       Uiso       1.00
     xx161          H  0.9583100  0.4469400  0.2916500    0.00000       Uiso       1.00
     xx162          H  1.0374700  0.5730200 -0.4130700    0.00000       Uiso       1.00
