data_TEMPO-COF
_audit_creation_date              0000-00-00
_audit_creation_method            'LanYouShi'
_symmetry_space_group_name_H-M    'P1'
_cell_length_a                    40.3157997
_cell_length_b                    40.3157997
_cell_length_c                    3.5000000
_cell_angle_alpha                 90.0000000
_cell_angle_beta                  90.0000000
_cell_angle_gamma                 119.9950027
loop_
_atom_site_label
_atom_site_type_symbol
_atom_site_fract_x
_atom_site_fract_y
_atom_site_fract_z
_atom_site_U_iso_or_equiv
_atom_site_adp_type
_atom_site_occupancy
       xx1          C  0.3194400  0.6802300  0.4132400    0.00000       Uiso       1.00
       xx2          C  0.2914000  0.6393800  0.4450600    0.00000       Uiso       1.00
       xx3          C  0.3095100  0.6163200  0.4789400    0.00000       Uiso       1.00
       xx4          C  0.3500200  0.6299100  0.4740300    0.00000       Uiso       1.00
       xx5          C  0.3733600  0.6703700  0.4315800    0.00000       Uiso       1.00
       xx6          C  0.3611300  0.6979200  0.4038400    0.00000       Uiso       1.00
       xx7          C  0.0438400  0.5156600  0.4868900    0.00000       Uiso       1.00
       xx8          C  0.0262200  0.5381600  0.5583400    0.00000       Uiso       1.00
       xx9          C  0.9851900  0.5241100  0.5666100    0.00000       Uiso       1.00
      xx10          O  0.0279600  0.4508600  0.3725300    0.00000       Uiso       1.00
      xx11          C  0.0069000  0.4111100  0.2636700    0.00000       Uiso       1.00
      xx12          C  0.0856700  0.5302000  0.4614300    0.00000       Uiso       1.00
      xx13          N  0.1191000  0.5664200  0.5045400    0.00000       Uiso       1.00
      xx14          N  0.9715101  0.6082500  0.7479900    0.00000       Uiso       1.00
      xx15          N  0.9353000  0.5934500  0.8253900    0.00000       Uiso       1.00
      xx16          N  0.9249600  0.6195200  0.8416700    0.00000       Uiso       1.00
      xx17          C  0.9567500  0.6532800  0.7629900    0.00000       Uiso       1.00
      xx18          C  0.9863200  0.6460400  0.7019800    0.00000       Uiso       1.00
      xx19          C  0.8831800  0.6447800  1.0617900    0.00000       Uiso       1.00
      xx20          C  0.8891100  0.6130000  0.9491500    0.00000       Uiso       1.00
      xx21          C  0.1401500  0.4255300  0.9294800    0.00000       Uiso       1.00
      xx22          C  0.1818300  0.4384900  0.7579300    0.00000       Uiso       1.00
      xx23          C  0.1730400  0.3988800  0.5958800    0.00000       Uiso       1.00
      xx24          C  0.1545200  0.3574200  0.7599000    0.00000       Uiso       1.00
      xx25          O  0.1957900  0.4033600  0.3598000    0.00000       Uiso       1.00
      xx26          C  0.8122000  0.5202100  0.3917200    0.00000       Uiso       1.00
      xx27          C  0.7728800  0.5413800  0.1068100    0.00000       Uiso       1.00
      xx28          C  0.8686599  0.6877300  0.3822900    0.00000       Uiso       1.00
      xx29          C  0.8082500  0.6463500  0.1056900    0.00000       Uiso       1.00
      xx30          C  0.8195200  0.4359900  0.6344300    0.00000       Uiso       1.00
      xx31          C  0.8403400  0.4174900  0.5231100    0.00000       Uiso       1.00
      xx32          C  0.2218600  0.5821700  0.3532200    0.00000       Uiso       1.00
      xx33          C  0.2487700  0.6214900  0.4484700    0.00000       Uiso       1.00
      xx34          C  0.2275300  0.6401500  0.5476400    0.00000       Uiso       1.00
      xx35          C  0.1861400  0.6220100  0.5611000    0.00000       Uiso       1.00
      xx36          C  0.4964700  0.9527801  0.3785300    0.00000       Uiso       1.00
      xx37          C  0.5255900  0.9944800  0.3408800    0.00000       Uiso       1.00
      xx38          C  0.5310600  0.0334300  0.4896900    0.00000       Uiso       1.00
      xx39          O  0.4392400  0.9356000  0.6802800    0.00000       Uiso       1.00
      xx40          C  0.4551300  0.9167200  0.8726100    0.00000       Uiso       1.00
      xx41          C  0.4807000  0.8989300  0.3729700    0.00000       Uiso       1.00
      xx42          N  0.4835300  0.8649800  0.3526600    0.00000       Uiso       1.00
      xx43          N  0.4832000  0.0696700  0.1251700    0.00000       Uiso       1.00
      xx44          N  0.4616900  0.0886300  0.1357300    0.00000       Uiso       1.00
      xx45          N  0.4225900  0.0681500  0.0907800    0.00000       Uiso       1.00
      xx46          C  0.4201900  0.0382400 -0.0607300    0.00000       Uiso       1.00
      xx47          C  0.4478500  0.0382500  0.1355900    0.00000       Uiso       1.00
      xx48          C  0.3749200  0.0932100  0.0468900    0.00000       Uiso       1.00
      xx49          C  0.3858800  0.0638400  0.1475900    0.00000       Uiso       1.00
      xx50          C  0.6470800  0.9762200  0.7012600    0.00000       Uiso       1.00
      xx51          C  0.6911300  1.0019799  0.8498300    0.00000       Uiso       1.00
      xx52          C  0.7008900  0.9707000  0.9681100    0.00000       Uiso       1.00
      xx53          C  0.6740699  0.9248800  0.0285500    0.00000       Uiso       1.00
      xx54          O  0.7346100  0.9780000  0.9813100    0.00000       Uiso       1.00
      xx55          C  0.2676500  0.9674100  0.3365100    0.00000       Uiso       1.00
      xx56          C  0.3130800  0.9626901  0.9745299    0.00000       Uiso       1.00
      xx57          C  0.3026400  0.1028200  0.0319800    0.00000       Uiso       1.00
      xx58          C  0.3241900  0.0814700  0.6491400    0.00000       Uiso       1.00
      xx59          C  0.5859400  0.1903100  0.5343100    0.00000       Uiso       1.00
      xx60          C  0.5461400  0.1752200  0.6338800    0.00000       Uiso       1.00
      xx61          C  0.3848100  0.7700200  0.4707900    0.00000       Uiso       1.00
      xx62          C  0.3908800  0.7390600  0.3778000    0.00000       Uiso       1.00
      xx63          C  0.4304900  0.7542100  0.2685600    0.00000       Uiso       1.00
      xx64          C  0.4599500  0.7940100  0.2688400    0.00000       Uiso       1.00
      xx65          C  0.5195100  0.4771200  0.4411600    0.00000       Uiso       1.00
      xx66          C  0.5373400  0.5127300  0.6273300    0.00000       Uiso       1.00
      xx67          C  0.5186600  0.5344500  0.6832500    0.00000       Uiso       1.00
      xx68          O  0.4623500  0.4319900  0.1332200    0.00000       Uiso       1.00
      xx69          C  0.4247900  0.4102300 -0.0230700    0.00000       Uiso       1.00
      xx70          C  0.5383400  0.4549600  0.3841100    0.00000       Uiso       1.00
      xx71          N  0.5735900  0.4613000  0.5094500    0.00000       Uiso       1.00
      xx72          N  0.5749000  0.6206600  0.2131300    0.00000       Uiso       1.00
      xx73          N  0.6052500  0.6510500  0.3270400    0.00000       Uiso       1.00
      xx74          N  0.5962400  0.6739200  0.5002800    0.00000       Uiso       1.00
      xx75          C  0.5576500  0.6570500  0.5043400    0.00000       Uiso       1.00
      xx76          C  0.5442400  0.6236600  0.3089200    0.00000       Uiso       1.00
      xx77          C  0.6059800  0.7327400  0.7828200    0.00000       Uiso       1.00
      xx78          C  0.6222700  0.7097600  0.6245900    0.00000       Uiso       1.00
      xx79          C  0.3359900  0.2740200  0.4775000    0.00000       Uiso       1.00
      xx80          C  0.2999700  0.2331300  0.3347500    0.00000       Uiso       1.00
      xx81          C  0.3186000  0.2081400  0.2222600    0.00000       Uiso       1.00
      xx82          C  0.3639400  0.2205700  0.1519400    0.00000       Uiso       1.00
      xx83          O  0.2991400  0.1729600  0.2178400    0.00000       Uiso       1.00
      xx84          C  0.7394200  0.8009900  0.4762600    0.00000       Uiso       1.00
      xx85          C  0.7241200  0.7475000  0.8429700    0.00000       Uiso       1.00
      xx86          C  0.6141900  0.8082700  0.7822700    0.00000       Uiso       1.00
      xx87          C  0.6354900  0.7858200  0.1710200    0.00000       Uiso       1.00
      xx88          C  0.4258900  0.5991100  0.6362700    0.00000       Uiso       1.00
      xx89          C  0.4083800  0.5605300  0.5116500    0.00000       Uiso       1.00
      xx90          C  0.5935900  0.3796400  0.3624600    0.00000       Uiso       1.00
      xx91          C  0.6319800  0.3938700  0.4967600    0.00000       Uiso       1.00
      xx92          C  0.6497000  0.4331600  0.6076301    0.00000       Uiso       1.00
      xx93          C  0.6304600  0.4548900  0.6034900    0.00000       Uiso       1.00
      xx94          H  0.3087600  0.6983600  0.3909900    0.00000       Uiso       1.00
      xx95          H  0.2921900  0.5875700  0.5162000    0.00000       Uiso       1.00
      xx96          H  0.4019100  0.6805700  0.4205400    0.00000       Uiso       1.00
      xx97          H  0.0446600  0.5665700  0.6033000    0.00000       Uiso       1.00
      xx98          H -0.0034300  0.4112400 -0.0145700    0.00000       Uiso       1.00
      xx99          H -0.0192700  0.3942000  0.4261700    0.00000       Uiso       1.00
     xx100          H  0.0924300  0.5095800  0.3977600    0.00000       Uiso       1.00
     xx101          H  0.9596000  0.6798900  0.7535600    0.00000       Uiso       1.00
     xx102          H  1.0140899  0.6659100  0.6401100    0.00000       Uiso       1.00
     xx103          H  0.8995100  0.6684900  0.8839800    0.00000       Uiso       1.00
     xx104          H  0.9029100  0.6525300  1.2979500    0.00000       Uiso       1.00
     xx105          H  0.1376900  0.4461000  1.0969200    0.00000       Uiso       1.00
     xx106          H  0.1232800  0.4250600  0.6871400    0.00000       Uiso       1.00
     xx107          H  0.8028100  0.4997200  0.1602100    0.00000       Uiso       1.00
     xx108          H  0.7901300  0.5043100  0.5953800    0.00000       Uiso       1.00
     xx109          H  0.8365000  0.5173800  0.4755700    0.00000       Uiso       1.00
     xx110          H  0.7518500  0.5140700  0.2352400    0.00000       Uiso       1.00
     xx111          H  0.7669400  0.5348600 -0.1831100    0.00000       Uiso       1.00
     xx112          H  0.7595500  0.5585300  0.1658300    0.00000       Uiso       1.00
     xx113          H  0.8725900  0.7066400  0.1463700    0.00000       Uiso       1.00
     xx114          H  0.8986000  0.7015800  0.4659200    0.00000       Uiso       1.00
     xx115          H  0.8549600  0.6971200  0.5819000    0.00000       Uiso       1.00
     xx116          H  0.7807000  0.6207200  0.1526300    0.00000       Uiso       1.00
     xx117          H  0.8072500  0.6525800 -0.1820300    0.00000       Uiso       1.00
     xx118          H  0.8032200  0.6678900  0.2413300    0.00000       Uiso       1.00
     xx119          H  0.8351600  0.4639100  0.7162300    0.00000       Uiso       1.00
     xx120          H  0.2324900  0.5652700  0.2632100    0.00000       Uiso       1.00
     xx121          H  0.2426600  0.6684900  0.6193600    0.00000       Uiso       1.00
     xx122          H  0.1748200  0.6387300  0.6397600    0.00000       Uiso       1.00
     xx123          H  0.5526700  1.0041600  0.2783100    0.00000       Uiso       1.00
     xx124          H  0.5456400  0.0322700  0.7388900    0.00000       Uiso       1.00
     xx125          H  0.4333900  0.8862600  0.8472500    0.00000       Uiso       1.00
     xx126          H  0.4354400  0.9127000  1.0974200    0.00000       Uiso       1.00
     xx127          H  0.4531000  0.8810600  0.3707600    0.00000       Uiso       1.00
     xx128          H  0.3985800  0.0147700 -0.1854200    0.00000       Uiso       1.00
     xx129          H  0.4375500  0.0117300  0.2153500    0.00000       Uiso       1.00
     xx130          H  0.3930600  0.1062800 -0.1990400    0.00000       Uiso       1.00
     xx131          H  0.3889100  0.1181300  0.2273300    0.00000       Uiso       1.00
     xx132          H  0.6342800  0.9936900  0.6715100    0.00000       Uiso       1.00
     xx133          H  0.6487700  0.9727600  0.4128200    0.00000       Uiso       1.00
     xx134          H  0.2610300  0.9391300  0.4253600    0.00000       Uiso       1.00
     xx135          H  0.2451200  0.9574699  0.1219000    0.00000       Uiso       1.00
     xx136          H  0.2573900  0.9790199  0.5471400    0.00000       Uiso       1.00
     xx137          H  0.3360400  0.9697400  0.7823800    0.00000       Uiso       1.00
     xx138          H  0.2885500  0.9365799  0.8778300    0.00000       Uiso       1.00
     xx139          H  0.3208100  0.9493300  1.2014300    0.00000       Uiso       1.00
     xx140          H  0.2737800  0.0867200  0.1524100    0.00000       Uiso       1.00
     xx141          H  0.2949700  0.1159200 -0.2065000    0.00000       Uiso       1.00
     xx142          H  0.3190300  0.1282800  0.1910500    0.00000       Uiso       1.00
     xx143          H  0.3356700  0.0661000  0.5616200    0.00000       Uiso       1.00
     xx144          H  0.3445500  0.1112600  0.5713400    0.00000       Uiso       1.00
     xx145          H  0.2941400  0.0649700  0.5472900    0.00000       Uiso       1.00
     xx146          H  0.5953500  0.1721100  0.4571700    0.00000       Uiso       1.00
     xx147          H  0.3579200  0.7637400  0.5517700    0.00000       Uiso       1.00
     xx148          H  0.4394100  0.7359500  0.1775200    0.00000       Uiso       1.00
     xx149          H  0.4870000  0.8006900  0.1890600    0.00000       Uiso       1.00
     xx150          H  0.5646400  0.5231100  0.7257100    0.00000       Uiso       1.00
     xx151          H  0.4182300  0.4269100 -0.2187000    0.00000       Uiso       1.00
     xx152          H  0.4025500  0.3997900  0.1924500    0.00000       Uiso       1.00
     xx153          H  0.5233600  0.4305300  0.2307300    0.00000       Uiso       1.00
     xx154          H  0.5404500  0.6663600  0.6186600    0.00000       Uiso       1.00
     xx155          H  0.5162800  0.6053900  0.2510700    0.00000       Uiso       1.00
     xx156          H  0.5908700  0.7170100  1.0321000    0.00000       Uiso       1.00
     xx157          H  0.5806300  0.7283900  0.6325800    0.00000       Uiso       1.00
     xx158          H  0.3325300  0.2991000  0.4418100    0.00000       Uiso       1.00
     xx159          H  0.3375800  0.2723500  0.7725100    0.00000       Uiso       1.00
     xx160          H  0.7350000  0.8168900  0.2602500    0.00000       Uiso       1.00
     xx161          H  0.7627800  0.7967600  0.3910200    0.00000       Uiso       1.00
     xx162          H  0.7559500  0.8230400  0.6869701    0.00000       Uiso       1.00
     xx163          H  0.7302200  0.7327200  0.6173200    0.00000       Uiso       1.00
     xx164          H  0.7097800  0.7242700  1.0410900    0.00000       Uiso       1.00
     xx165          H  0.7534400  0.7647500  0.9347900    0.00000       Uiso       1.00
     xx166          H  0.5838300  0.7900500  0.7091200    0.00000       Uiso       1.00
     xx167          H  0.6262500  0.8307800  0.5819899    0.00000       Uiso       1.00
     xx168          H  0.6113600  0.8254300  1.0094000    0.00000       Uiso       1.00
     xx169          H  0.6571300  0.8155000  0.2560700    0.00000       Uiso       1.00
     xx170          H  0.6439800  0.7673000  0.2600700    0.00000       Uiso       1.00
     xx171          H  0.6052400  0.7716400  0.2637900    0.00000       Uiso       1.00
     xx172          H  0.4536200  0.6125000  0.7292500    0.00000       Uiso       1.00
     xx173          H  0.5783700  0.3525600  0.2546200    0.00000       Uiso       1.00
     xx174          H  0.6773600  0.4466600  0.7028800    0.00000       Uiso       1.00
     xx175          H  0.6453100  0.4827800  0.6923300    0.00000       Uiso       1.00
     xx176          C  0.6805600  0.3197700  0.5867600    0.00000       Uiso       1.00
     xx177          C  0.7086000  0.3606200  0.5549400    0.00000       Uiso       1.00
     xx178          C  0.6904900  0.3836800  0.5210600    0.00000       Uiso       1.00
     xx179          C  0.6499800  0.3700900  0.5259700    0.00000       Uiso       1.00
     xx180          C  0.6266400  0.3296300  0.5684200    0.00000       Uiso       1.00
     xx181          C  0.6388700  0.3020800  0.5961600    0.00000       Uiso       1.00
     xx182          C  0.9561600  0.4843400  0.5131100    0.00000       Uiso       1.00
     xx183          C  0.9737800  0.4618400  0.4416600    0.00000       Uiso       1.00
     xx184          C  0.0148100  0.4758900  0.4333900    0.00000       Uiso       1.00
     xx185          O  0.9720400  0.5491400  0.6274700    0.00000       Uiso       1.00
     xx186          C  0.9931000  0.5888900  0.7363300    0.00000       Uiso       1.00
     xx187          C  0.9143300  0.4698000  0.5385700    0.00000       Uiso       1.00
     xx188          N  0.8809000  0.4335800  0.4954600    0.00000       Uiso       1.00
     xx189          N  0.0284900  0.3917500  0.2520100    0.00000       Uiso       1.00
     xx190          N  0.0647000  0.4065500  0.1746100    0.00000       Uiso       1.00
     xx191          N  0.0750400  0.3804800  0.1583300    0.00000       Uiso       1.00
     xx192          C  0.0432500  0.3467200  0.2370100    0.00000       Uiso       1.00
     xx193          C  0.0136800  0.3539600  0.2980200    0.00000       Uiso       1.00
     xx194          C  0.1168200  0.3552200 -0.0617900    0.00000       Uiso       1.00
     xx195          C  0.1108900  0.3870000  0.0508500    0.00000       Uiso       1.00
     xx196          C  0.8598500  0.5744700  0.0705200    0.00000       Uiso       1.00
     xx197          C  0.8181700  0.5615100  0.2420700    0.00000       Uiso       1.00
     xx198          C  0.8269600  0.6011200  0.4041200    0.00000       Uiso       1.00
     xx199          C  0.8454800  0.6425800  0.2401000    0.00000       Uiso       1.00
     xx200          O  0.8042100  0.5966400  0.6402000    0.00000       Uiso       1.00
     xx201          C  0.1878000  0.4797900  0.6082800    0.00000       Uiso       1.00
     xx202          C  0.2271200  0.4586200  0.8931900    0.00000       Uiso       1.00
     xx203          C  0.1313400  0.3122700  0.6177100    0.00000       Uiso       1.00
     xx204          C  0.1917500  0.3536500  0.8943100    0.00000       Uiso       1.00
     xx205          C  0.1804800  0.5640100  0.3655700    0.00000       Uiso       1.00
     xx206          C  0.1596600  0.5825100  0.4768900    0.00000       Uiso       1.00
     xx207          C  0.7781400  0.4178300  0.6467800    0.00000       Uiso       1.00
     xx208          C  0.7512300  0.3785100  0.5515300    0.00000       Uiso       1.00
     xx209          C  0.7724700  0.3598500  0.4523600    0.00000       Uiso       1.00
     xx210          C  0.8138600  0.3779900  0.4389000    0.00000       Uiso       1.00
     xx211          C  0.5035300  0.0472200  0.6214700    0.00000       Uiso       1.00
     xx212          C  0.4744100  0.0055200  0.6591200    0.00000       Uiso       1.00
     xx213          C  0.4689400  0.9665701  0.5103100    0.00000       Uiso       1.00
     xx214          O  0.5607600  0.0644000  0.3197200    0.00000       Uiso       1.00
     xx215          C  0.5448700  0.0832800  0.1273900    0.00000       Uiso       1.00
     xx216          C  0.5193000  0.1010700  0.6270300    0.00000       Uiso       1.00
     xx217          N  0.5164700  0.1350200  0.6473400    0.00000       Uiso       1.00
     xx218          N  0.5168000  0.9303299  0.8748299    0.00000       Uiso       1.00
     xx219          N  0.5383100  0.9113700  0.8642699    0.00000       Uiso       1.00
     xx220          N  0.5774100  0.9318500  0.9092200    0.00000       Uiso       1.00
     xx221          C  0.5798100  0.9617600  1.0607300    0.00000       Uiso       1.00
     xx222          C  0.5521500  0.9617499  0.8644100    0.00000       Uiso       1.00
     xx223          C  0.6250800  0.9067900  0.9531100    0.00000       Uiso       1.00
     xx224          C  0.6141200  0.9361600  0.8524100    0.00000       Uiso       1.00
     xx225          C  0.3529200  0.0237800  0.2987400    0.00000       Uiso       1.00
     xx226          C  0.3088700 -0.0019800  0.1501700    0.00000       Uiso       1.00
     xx227          C  0.2991100  0.0293000  0.0318900    0.00000       Uiso       1.00
     xx228          C  0.3259300  0.0751200  0.9714500    0.00000       Uiso       1.00
     xx229          O  0.2653900  0.0220000  0.0186900    0.00000       Uiso       1.00
     xx230          C  0.7323500  0.0325900  0.6634900    0.00000       Uiso       1.00
     xx231          C  0.6869200  0.0373100  0.0254700    0.00000       Uiso       1.00
     xx232          C  0.6973600  0.8971800  0.9680200    0.00000       Uiso       1.00
     xx233          C  0.6758100  0.9185300  0.3508600    0.00000       Uiso       1.00
     xx234          C  0.4140600  0.8096900  0.4656900    0.00000       Uiso       1.00
     xx235          C  0.4538600  0.8247800  0.3661200    0.00000       Uiso       1.00
     xx236          C  0.6151900  0.2299800  0.5292100    0.00000       Uiso       1.00
     xx237          C  0.6091200  0.2609400  0.6222000    0.00000       Uiso       1.00
     xx238          C  0.5695100  0.2457900  0.7314400    0.00000       Uiso       1.00
     xx239          C  0.5400500  0.2059900  0.7311600    0.00000       Uiso       1.00
     xx240          C  0.4804900  0.5228800  0.5588400    0.00000       Uiso       1.00
     xx241          C  0.4626600  0.4872700  0.3726700    0.00000       Uiso       1.00
     xx242          C  0.4813400  0.4655500  0.3167500    0.00000       Uiso       1.00
     xx243          O  0.5376500  0.5680100  0.8667800    0.00000       Uiso       1.00
     xx244          C  0.5752100  0.5897700  1.0230700    0.00000       Uiso       1.00
     xx245          C  0.4616600  0.5450400  0.6158900    0.00000       Uiso       1.00
     xx246          N  0.4264100  0.5387000  0.4905500    0.00000       Uiso       1.00
     xx247          N  0.4251000  0.3793400  0.7868700    0.00000       Uiso       1.00
     xx248          N  0.3947500  0.3489500  0.6729600    0.00000       Uiso       1.00
     xx249          N  0.4037600  0.3260800  0.4997200    0.00000       Uiso       1.00
     xx250          C  0.4423500  0.3429500  0.4956600    0.00000       Uiso       1.00
     xx251          C  0.4557600  0.3763400  0.6910800    0.00000       Uiso       1.00
     xx252          C  0.3940200  0.2672600  0.2171800    0.00000       Uiso       1.00
     xx253          C  0.3777300  0.2902400  0.3754100    0.00000       Uiso       1.00
     xx254          C  0.6640100  0.7259800  0.5225000    0.00000       Uiso       1.00
     xx255          C  0.7000300  0.7668700  0.6652500    0.00000       Uiso       1.00
     xx256          C  0.6814000  0.7918600  0.7777400    0.00000       Uiso       1.00
     xx257          C  0.6360600  0.7794300  0.8480600    0.00000       Uiso       1.00
     xx258          O  0.7008600  0.8270400  0.7821600    0.00000       Uiso       1.00
     xx259          C  0.2605800  0.1990100  0.5237400    0.00000       Uiso       1.00
     xx260          C  0.2758800  0.2525000  0.1570300    0.00000       Uiso       1.00
     xx261          C  0.3858100  0.1917300  0.2177300    0.00000       Uiso       1.00
     xx262          C  0.3645100  0.2141800  0.8289800    0.00000       Uiso       1.00
     xx263          C  0.5741100  0.4008900  0.3637300    0.00000       Uiso       1.00
     xx264          C  0.5916200  0.4394700  0.4883500    0.00000       Uiso       1.00
     xx265          C  0.4064100  0.6203600  0.6375400    0.00000       Uiso       1.00
     xx266          C  0.3680200  0.6061300  0.5032400    0.00000       Uiso       1.00
     xx267          C  0.3503000  0.5668400  0.3923700    0.00000       Uiso       1.00
     xx268          C  0.3695400  0.5451100  0.3965100    0.00000       Uiso       1.00
     xx269          H  0.6912400  0.3016400  0.6090100    0.00000       Uiso       1.00
     xx270          H  0.7078100  0.4124300  0.4838000    0.00000       Uiso       1.00
     xx271          H  0.5980900  0.3194300  0.5794600    0.00000       Uiso       1.00
     xx272          H  0.9553400  0.4334300  0.3967000    0.00000       Uiso       1.00
     xx273          H  1.0034300  0.5887600  1.0145700    0.00000       Uiso       1.00
     xx274          H  1.0192699  0.6058000  0.5738300    0.00000       Uiso       1.00
     xx275          H  0.9075700  0.4904200  0.6022400    0.00000       Uiso       1.00
     xx276          H  0.0404000  0.3201100  0.2464400    0.00000       Uiso       1.00
     xx277          H -0.0140900  0.3340900  0.3598900    0.00000       Uiso       1.00
     xx278          H  0.1004900  0.3315100  0.1160200    0.00000       Uiso       1.00
     xx279          H  0.0970900  0.3474700 -0.2979500    0.00000       Uiso       1.00
     xx280          H  0.8623100  0.5539000 -0.0969200    0.00000       Uiso       1.00
     xx281          H  0.8767200  0.5749400  0.3128600    0.00000       Uiso       1.00
     xx282          H  0.1971900  0.5002800  0.8397900    0.00000       Uiso       1.00
     xx283          H  0.2098700  0.4956900  0.4046200    0.00000       Uiso       1.00
     xx284          H  0.1635000  0.4826200  0.5244300    0.00000       Uiso       1.00
     xx285          H  0.2481500  0.4859300  0.7647600    0.00000       Uiso       1.00
     xx286          H  0.2330600  0.4651400  1.1831100    0.00000       Uiso       1.00
     xx287          H  0.2404500  0.4414700  0.8341700    0.00000       Uiso       1.00
     xx288          H  0.1274100  0.2933600  0.8536300    0.00000       Uiso       1.00
     xx289          H  0.1014000  0.2984200  0.5340800    0.00000       Uiso       1.00
     xx290          H  0.1450400  0.3028800  0.4181000    0.00000       Uiso       1.00
     xx291          H  0.2193000  0.3792800  0.8473700    0.00000       Uiso       1.00
     xx292          H  0.1927500  0.3474200  1.1820300    0.00000       Uiso       1.00
     xx293          H  0.1967800  0.3321100  0.7586700    0.00000       Uiso       1.00
     xx294          H  0.1648400  0.5360900  0.2837700    0.00000       Uiso       1.00
     xx295          H  0.7675100  0.4347300  0.7367900    0.00000       Uiso       1.00
     xx296          H  0.7573400  0.3315100  0.3806400    0.00000       Uiso       1.00
     xx297          H  0.8251800  0.3612700  0.3602400    0.00000       Uiso       1.00
     xx298          H  0.4473300 -0.0041600  0.7216900    0.00000       Uiso       1.00
     xx299          H  0.4543600  0.9677300  0.2611100    0.00000       Uiso       1.00
     xx300          H  0.5666100  0.1137400  0.1527500    0.00000       Uiso       1.00
     xx301          H  0.5645600  0.0873000 -0.0974200    0.00000       Uiso       1.00
     xx302          H  0.5469000  0.1189400  0.6292400    0.00000       Uiso       1.00
     xx303          H  0.6014200  0.9852300  1.1854200    0.00000       Uiso       1.00
     xx304          H  0.5624500  0.9882699  0.7846500    0.00000       Uiso       1.00
     xx305          H  0.6069400  0.8937200  1.1990401    0.00000       Uiso       1.00
     xx306          H  0.6110900  0.8818700  0.7726700    0.00000       Uiso       1.00
     xx307          H  0.3657200  0.0063100  0.3284900    0.00000       Uiso       1.00
     xx308          H  0.3512300  0.0272400  0.5871800    0.00000       Uiso       1.00
     xx309          H  0.7389700  0.0608700  0.5746400    0.00000       Uiso       1.00
     xx310          H  0.7548800  0.0425300  0.8781000    0.00000       Uiso       1.00
     xx311          H  0.7426100  0.0209800  0.4528600    0.00000       Uiso       1.00
     xx312          H  0.6639600  0.0302600  0.2176200    0.00000       Uiso       1.00
     xx313          H  0.7114500  0.0634200  0.1221700    0.00000       Uiso       1.00
     xx314          H  0.6791900  0.0506700 -0.2014300    0.00000       Uiso       1.00
     xx315          H  0.7262200  0.9132800  0.8475900    0.00000       Uiso       1.00
     xx316          H  0.7050300  0.8840800  1.2065001    0.00000       Uiso       1.00
     xx317          H  0.6809700  0.8717200  0.8089500    0.00000       Uiso       1.00
     xx318          H  0.6643300  0.9339000  0.4383800    0.00000       Uiso       1.00
     xx319          H  0.6554500  0.8887400  0.4286600    0.00000       Uiso       1.00
     xx320          H  0.7058600  0.9350300  0.4527100    0.00000       Uiso       1.00
     xx321          H  0.4046500  0.8278900  0.5428300    0.00000       Uiso       1.00
     xx322          H  0.6420800  0.2362600  0.4482300    0.00000       Uiso       1.00
     xx323          H  0.5605900  0.2640500  0.8224800    0.00000       Uiso       1.00
     xx324          H  0.5130000  0.1993100  0.8109401    0.00000       Uiso       1.00
     xx325          H  0.4353600  0.4768900  0.2742900    0.00000       Uiso       1.00
     xx326          H  0.5817700  0.5730900  1.2187001    0.00000       Uiso       1.00
     xx327          H  0.5974500  0.6002100  0.8075500    0.00000       Uiso       1.00
     xx328          H  0.4766400  0.5694700  0.7692700    0.00000       Uiso       1.00
     xx329          H  0.4595500  0.3336400  0.3813400    0.00000       Uiso       1.00
     xx330          H  0.4837200  0.3946100  0.7489300    0.00000       Uiso       1.00
     xx331          H  0.4091300  0.2829900 -0.0321000    0.00000       Uiso       1.00
     xx332          H  0.4193700  0.2716100  0.3674200    0.00000       Uiso       1.00
     xx333          H  0.6674700  0.7009000  0.5581900    0.00000       Uiso       1.00
     xx334          H  0.6624200  0.7276500  0.2274900    0.00000       Uiso       1.00
     xx335          H  0.2650000  0.1831100  0.7397500    0.00000       Uiso       1.00
     xx336          H  0.2372200  0.2032400  0.6089800    0.00000       Uiso       1.00
     xx337          H  0.2440500  0.1769600  0.3130300    0.00000       Uiso       1.00
     xx338          H  0.2697800  0.2672800  0.3826800    0.00000       Uiso       1.00
     xx339          H  0.2902200  0.2757300 -0.0410900    0.00000       Uiso       1.00
     xx340          H  0.2465600  0.2352500  0.0652100    0.00000       Uiso       1.00
     xx341          H  0.4161700  0.2099500  0.2908800    0.00000       Uiso       1.00
     xx342          H  0.3737500  0.1692200  0.4180100    0.00000       Uiso       1.00
     xx343          H  0.3886400  0.1745700 -0.0094000    0.00000       Uiso       1.00
     xx344          H  0.3428700  0.1845000  0.7439300    0.00000       Uiso       1.00
     xx345          H  0.3560200  0.2327000  0.7399300    0.00000       Uiso       1.00
     xx346          H  0.3947600  0.2283600  0.7362100    0.00000       Uiso       1.00
     xx347          H  0.5463800  0.3875000  0.2707500    0.00000       Uiso       1.00
     xx348          H  0.4216300  0.6474400  0.7453800    0.00000       Uiso       1.00
     xx349          H  0.3226400  0.5533400  0.2971200    0.00000       Uiso       1.00
     xx350          H  0.3546900  0.5172200  0.3076700    0.00000       Uiso       1.00
