data_TFB-COF
_audit_creation_date              0000-00-00
_audit_creation_method            'LanYouShi'
_symmetry_space_group_name_H-M    'P1'
_cell_length_a                    30.5802002
_cell_length_b                    30.5802002
_cell_length_c                    4.0977001
_cell_angle_alpha                 90.0000000
_cell_angle_beta                  90.0000000
_cell_angle_gamma                 120.0000000
loop_
_atom_site_label
_atom_site_type_symbol
_atom_site_fract_x
_atom_site_fract_y
_atom_site_fract_z
_atom_site_U_iso_or_equiv
_atom_site_adp_type
_atom_site_occupancy
        C1          C  0.8956380  0.4220890  0.5000020    0.00000       Uiso       1.00
        C2          C  0.5779120  0.4735490  0.5000020    0.00000       Uiso       1.00
        C3          C  0.5264520  0.1043630  0.5000020    0.00000       Uiso       1.00
        C4          C  0.1043630  0.5779120  0.5000020    0.00000       Uiso       1.00
        C5          C  0.4220890  0.5264520  0.5000020    0.00000       Uiso       1.00
        C6          C  0.4735490  0.8956380  0.5000020    0.00000       Uiso       1.00
        C7          C  0.9469180  0.4618950  0.5000020    0.00000       Uiso       1.00
        C8          C  0.4481220  0.9623890  0.5000020    0.00000       Uiso       1.00
        C9          C  0.5381070  0.4850230  0.5000020    0.00000       Uiso       1.00
       C10          C  0.0376130  0.4857340  0.5000020    0.00000       Uiso       1.00
       C11          C  0.5149780  0.0530830  0.5000020    0.00000       Uiso       1.00
       C12          C  0.5142670  0.5518790  0.5000020    0.00000       Uiso       1.00
       C13          C  0.0530830  0.5381070  0.5000020    0.00000       Uiso       1.00
       C14          C  0.5518790  0.0376130  0.5000020    0.00000       Uiso       1.00
       C15          C  0.4618950  0.5149780  0.5000020    0.00000       Uiso       1.00
       C16          C  0.9623891  0.5142670  0.5000020    0.00000       Uiso       1.00
       C17          C  0.4850230  0.9469180  0.5000020    0.00000       Uiso       1.00
       C18          C  0.4857340  0.4481220  0.5000020    0.00000       Uiso       1.00
       O19          O  0.8850530  0.3767580  0.5000020    0.00000       Uiso       1.00
       O20          O  0.6232430  0.5082950  0.5000020    0.00000       Uiso       1.00
       O21          O  0.4917060  0.1149480  0.5000020    0.00000       Uiso       1.00
       O22          O  0.1149480  0.6232430  0.5000020    0.00000       Uiso       1.00
       O23          O  0.3767580  0.4917060  0.5000020    0.00000       Uiso       1.00
       O24          O  0.5082950  0.8850530  0.5000020    0.00000       Uiso       1.00
       N25          N  0.5853500  0.1909860  0.5000020    0.00000       Uiso       1.00
       N26          N  0.8090150  0.3943640  0.5000020    0.00000       Uiso       1.00
       N27          N  0.6056370  0.4146510  0.5000020    0.00000       Uiso       1.00
       N28          N  0.4146510  0.8090150  0.5000020    0.00000       Uiso       1.00
       N29          N  0.1909860  0.6056370  0.5000020    0.00000       Uiso       1.00
       N30          N  0.3943640  0.5853500  0.5000020    0.00000       Uiso       1.00
       N31          N  0.8559040  0.4299250  0.5000020    0.00000       Uiso       1.00
       N32          N  0.5700770  0.4259800  0.5000020    0.00000       Uiso       1.00
       N33          N  0.5740220  0.1440970  0.5000020    0.00000       Uiso       1.00
       N34          N  0.1440970  0.5700770  0.5000020    0.00000       Uiso       1.00
       N35          N  0.4299250  0.5740220  0.5000020    0.00000       Uiso       1.00
       N36          N  0.4259800  0.8559040  0.5000020    0.00000       Uiso       1.00
       C37          C  0.9856440  0.4492350  0.5000020    0.00000       Uiso       1.00
       C38          C  0.5507660  0.5364090  0.5000020    0.00000       Uiso       1.00
       C39          C  0.4635920  0.0143570  0.5000020    0.00000       Uiso       1.00
       C40          C  0.0143570  0.5507660  0.5000020    0.00000       Uiso       1.00
       C41          C  0.4492350  0.4635920  0.5000020    0.00000       Uiso       1.00
       C42          C  0.5364090  0.9856440  0.5000020    0.00000       Uiso       1.00
       H43          H  0.9759840  0.4121190  0.5000020    0.00000       Uiso       1.00
       H44          H  0.5878820  0.5638650  0.5000020    0.00000       Uiso       1.00
       H45          H  0.4361360  0.0240170  0.5000020    0.00000       Uiso       1.00
       H46          H  0.0240170  0.5878820  0.5000020    0.00000       Uiso       1.00
       H47          H  0.4121190  0.4361360  0.5000020    0.00000       Uiso       1.00
       H48          H  0.5638650  0.9759840  0.5000020    0.00000       Uiso       1.00
       C49          C  0.7714120  0.4054770  0.5000020    0.00000       Uiso       1.00
       C50          C  0.5945240  0.3659350  0.5000020    0.00000       Uiso       1.00
       C51          C  0.6340660  0.2285890  0.5000020    0.00000       Uiso       1.00
       C52          C  0.2285890  0.5945240  0.5000020    0.00000       Uiso       1.00
       C53          C  0.4054770  0.6340670  0.5000020    0.00000       Uiso       1.00
       C54          C  0.3659350  0.7714120  0.5000020    0.00000       Uiso       1.00
       C55          C  0.2804880  0.6309150  0.5000020    0.00000       Uiso       1.00
       C56          C  0.3690870  0.6495750  0.5000020    0.00000       Uiso       1.00
       C57          C  0.3504260  0.7195130  0.5000020    0.00000       Uiso       1.00
       C58          C  0.7195130  0.3690870  0.5000020    0.00000       Uiso       1.00
       C59          C  0.6309150  0.3504260  0.5000020    0.00000       Uiso       1.00
       C60          C  0.6495750  0.2804880  0.5000020    0.00000       Uiso       1.00
       C61          C  0.3166020  0.6148360  0.5000020    0.00000       Uiso       1.00
       C62          C  0.3851650  0.7017660  0.5000020    0.00000       Uiso       1.00
       C63          C  0.2982350  0.6834000  0.5000020    0.00000       Uiso       1.00
       C64          C  0.6834000  0.3851650  0.5000020    0.00000       Uiso       1.00
       C65          C  0.6148360  0.2982350  0.5000020    0.00000       Uiso       1.00
       C66          C  0.7017660  0.3166020  0.5000020    0.00000       Uiso       1.00
       H67          H  0.2724730  0.6954790  0.5000020    0.00000       Uiso       1.00
       H68          H  0.3045220  0.5769950  0.5000020    0.00000       Uiso       1.00
       H69          H  0.4230060  0.7275280  0.5000020    0.00000       Uiso       1.00
       H70          H  0.7275280  0.3045220  0.5000020    0.00000       Uiso       1.00
       H71          H  0.6954790  0.4230060  0.5000020    0.00000       Uiso       1.00
       H72          H  0.5769950  0.2724730  0.5000020    0.00000       Uiso       1.00
       H73          H  0.4001680  0.3535260  0.7159430    0.00000       Uiso       1.00
       H74          H  0.6464750  0.0466430  0.7159430    0.00000       Uiso       1.00
       H75          H  0.9533590  0.5998330  0.7159430    0.00000       Uiso       1.00
       H76          H  0.5998330  0.6464750  0.7159430    0.00000       Uiso       1.00
       H77          H  0.3535260  0.9533590  0.7159430    0.00000       Uiso       1.00
       H78          H  0.0466430  0.4001680  0.7159430    0.00000       Uiso       1.00
       H79          H  0.5998330  0.6464750  0.2840600    0.00000       Uiso       1.00
       H80          H  0.3535260  0.9533590  0.2840600    0.00000       Uiso       1.00
       H81          H  0.0466430  0.4001680  0.2840600    0.00000       Uiso       1.00
       H82          H  0.4001680  0.3535260  0.2840600    0.00000       Uiso       1.00
       H83          H  0.6464750  0.0466430  0.2840600    0.00000       Uiso       1.00
       H84          H  0.9533590  0.5998330  0.2840600    0.00000       Uiso       1.00
       H85          H  0.5584750  0.1990630  0.5000020    0.00000       Uiso       1.00
       H86          H  0.7815270  0.4429310  0.5000020    0.00000       Uiso       1.00
       H87          H  0.8628040  0.4642330  0.5000020    0.00000       Uiso       1.00
       O88          O  0.4704670  0.3977770  0.5000020    0.00000       Uiso       1.00
       C89          C  0.4210810  0.3540080  0.5000020    0.00000       Uiso       1.00
       H90          H  0.4247740  0.3203580  0.5000020    0.00000       Uiso       1.00
       H91          H  0.8009380  0.3594120  0.5000020    0.00000       Uiso       1.00
       H92          H  0.5570700  0.3385950  0.5000020    0.00000       Uiso       1.00
       H93          H  0.5357680  0.3985710  0.5000020    0.00000       Uiso       1.00
       O94          O  0.6022240  0.0726910  0.5000020    0.00000       Uiso       1.00
       C95          C  0.6459930  0.0670720  0.5000020    0.00000       Uiso       1.00
       H96          H  0.6796430  0.1044160  0.5000020    0.00000       Uiso       1.00
       H97          H  0.6405890  0.4415260  0.5000020    0.00000       Uiso       1.00
       H98          H  0.6614059  0.2184740  0.5000020    0.00000       Uiso       1.00
       H99          H  0.6014310  0.1371980  0.5000020    0.00000       Uiso       1.00
      O100          O  0.9273100  0.5295340  0.5000020    0.00000       Uiso       1.00
      C101          C  0.9329290  0.5789200  0.5000020    0.00000       Uiso       1.00
      H102          H  0.8955850  0.5752270  0.5000020    0.00000       Uiso       1.00
      H103          H  0.4415260  0.8009380  0.5000020    0.00000       Uiso       1.00
      H104          H  0.2184740  0.5570700  0.5000020    0.00000       Uiso       1.00
      H105          H  0.1371980  0.5357680  0.5000020    0.00000       Uiso       1.00
      O106          O  0.5295340  0.6022240  0.5000020    0.00000       Uiso       1.00
      C107          C  0.5789200  0.6459930  0.5000020    0.00000       Uiso       1.00
      H108          H  0.5752270  0.6796430  0.5000020    0.00000       Uiso       1.00
      H109          H  0.1990630  0.6405890  0.5000020    0.00000       Uiso       1.00
      H110          H  0.4429310  0.6614060  0.5000020    0.00000       Uiso       1.00
      H111          H  0.4642330  0.6014310  0.5000020    0.00000       Uiso       1.00
      O112          O  0.3977770  0.9273110  0.5000020    0.00000       Uiso       1.00
      C113          C  0.3540080  0.9329289  0.5000020    0.00000       Uiso       1.00
      H114          H  0.3203580  0.8955850  0.5000020    0.00000       Uiso       1.00
      H115          H  0.3594120  0.5584750  0.5000020    0.00000       Uiso       1.00
      H116          H  0.3385950  0.7815270  0.5000020    0.00000       Uiso       1.00
      H117          H  0.3985710  0.8628040  0.5000020    0.00000       Uiso       1.00
      O118          O  0.0726910  0.4704670  0.5000020    0.00000       Uiso       1.00
      C119          C  0.0670720  0.4210810  0.5000020    0.00000       Uiso       1.00
      H120          H  0.1044160  0.4247740  0.5000020    0.00000       Uiso       1.00
