data_TfpBDH
_audit_creation_date              0000-00-00
_audit_creation_method            'LanYouShi'
_symmetry_space_group_name_H-M    'P1'
_cell_length_a                    43.8237991
_cell_length_b                    43.8237991
_cell_length_c                    3.5941000
_cell_angle_alpha                 90.0000000
_cell_angle_beta                  90.0000000
_cell_angle_gamma                 120.0000000
loop_
_atom_site_label
_atom_site_type_symbol
_atom_site_fract_x
_atom_site_fract_y
_atom_site_fract_z
_atom_site_U_iso_or_equiv
_atom_site_adp_type
_atom_site_occupancy
        C1          C  0.8546930  0.4554230  0.4999940    0.00000       Uiso       1.00
        C2          C  0.5445780  0.3992700  0.4999940    0.00000       Uiso       1.00
        C3          C  0.6007310  0.1453080  0.4999940    0.00000       Uiso       1.00
        C4          C  0.1453080  0.5445780  0.4999940    0.00000       Uiso       1.00
        C5          C  0.4554230  0.6007310  0.4999940    0.00000       Uiso       1.00
        C6          C  0.3992700  0.8546930  0.4999940    0.00000       Uiso       1.00
        N7          N  0.8785580  0.4444870  0.4999940    0.00000       Uiso       1.00
        N8          N  0.5555140  0.4340710  0.4999940    0.00000       Uiso       1.00
        N9          N  0.5659300  0.1214430  0.4999940    0.00000       Uiso       1.00
       N10          N  0.1214430  0.5555140  0.4999940    0.00000       Uiso       1.00
       N11          N  0.4444870  0.5659300  0.4999940    0.00000       Uiso       1.00
       N12          N  0.4340710  0.8785579  0.4999940    0.00000       Uiso       1.00
       N13          N  0.9129080  0.4619220  0.4999940    0.00000       Uiso       1.00
       N14          N  0.5380790  0.4509870  0.4999940    0.00000       Uiso       1.00
       N15          N  0.5490140  0.0870920  0.4999940    0.00000       Uiso       1.00
       N16          N  0.0870920  0.5380790  0.4999940    0.00000       Uiso       1.00
       N17          N  0.4619220  0.5490140  0.4999940    0.00000       Uiso       1.00
       N18          N  0.4509870  0.9129089  0.4999940    0.00000       Uiso       1.00
       C19          C  0.0027560  0.5341440  0.4999940    0.00000       Uiso       1.00
       C20          C  0.4658560  0.4686120  0.4999940    0.00000       Uiso       1.00
       C21          C  0.5313890  0.9972450  0.4999940    0.00000       Uiso       1.00
       C22          C  0.9972451  0.4658560  0.4999940    0.00000       Uiso       1.00
       C23          C  0.5341440  0.5313890  0.4999940    0.00000       Uiso       1.00
       C24          C  0.4686120  0.0027560  0.4999940    0.00000       Uiso       1.00
       C25          C  0.9698150  0.5028050  0.4999940    0.00000       Uiso       1.00
       C26          C  0.4971960  0.4670100  0.4999940    0.00000       Uiso       1.00
       C27          C  0.5329900  0.0301850  0.4999940    0.00000       Uiso       1.00
       C28          C  0.0301850  0.4971960  0.4999940    0.00000       Uiso       1.00
       C29          C  0.5028050  0.5329900  0.4999940    0.00000       Uiso       1.00
       C30          C  0.4670100  0.9698150  0.4999940    0.00000       Uiso       1.00
       C31          C  0.9671749  0.4697030  0.4999940    0.00000       Uiso       1.00
       C32          C  0.5302980  0.4974720  0.4999940    0.00000       Uiso       1.00
       C33          C  0.5025290  0.0328250  0.4999940    0.00000       Uiso       1.00
       C34          C  0.0328260  0.5302980  0.4999940    0.00000       Uiso       1.00
       C35          C  0.4697030  0.5025290  0.4999940    0.00000       Uiso       1.00
       C36          C  0.4974720  0.9671751  0.4999940    0.00000       Uiso       1.00
       C37          C  0.9356610  0.4971940  0.4999940    0.00000       Uiso       1.00
       C38          C  0.5028070  0.4384670  0.4999940    0.00000       Uiso       1.00
       C39          C  0.5615340  0.0643400  0.4999940    0.00000       Uiso       1.00
       C40          C  0.0643400  0.5028070  0.4999940    0.00000       Uiso       1.00
       C41          C  0.4971940  0.5615340  0.4999940    0.00000       Uiso       1.00
       C42          C  0.4384670  0.9356610  0.4999940    0.00000       Uiso       1.00
       C43          C  0.9314800  0.4448800  0.4999940    0.00000       Uiso       1.00
       C44          C  0.5551200  0.4865990  0.4999940    0.00000       Uiso       1.00
       C45          C  0.5134010  0.0685210  0.4999940    0.00000       Uiso       1.00
       C46          C  0.0685210  0.5551200  0.4999940    0.00000       Uiso       1.00
       C47          C  0.4448800  0.5134010  0.4999940    0.00000       Uiso       1.00
       C48          C  0.4865990  0.9314800  0.4999940    0.00000       Uiso       1.00
       H49          H  0.1367710  0.5182150  0.4999940    0.00000       Uiso       1.00
       H50          H  0.4817860  0.6185570  0.4999940    0.00000       Uiso       1.00
       H51          H  0.3814440  0.8632300  0.4999940    0.00000       Uiso       1.00
       H52          H  0.8632300  0.4817860  0.4999940    0.00000       Uiso       1.00
       H53          H  0.5182150  0.3814440  0.4999940    0.00000       Uiso       1.00
       H54          H  0.6185570  0.1367710  0.4999940    0.00000       Uiso       1.00
       O55          O  0.0716470  0.4786060  0.4999940    0.00000       Uiso       1.00
       O56          O  0.5213940  0.5930410  0.4999940    0.00000       Uiso       1.00
       O57          O  0.4069590  0.9283541  0.4999940    0.00000       Uiso       1.00
       O58          O  0.9283541  0.5213940  0.4999940    0.00000       Uiso       1.00
       O59          O  0.4786060  0.4069590  0.4999940    0.00000       Uiso       1.00
       O60          O  0.5930410  0.0716470  0.4999940    0.00000       Uiso       1.00
       O61          O  0.0809850  0.5878290  0.4999940    0.00000       Uiso       1.00
       O62          O  0.4121710  0.4931570  0.4999940    0.00000       Uiso       1.00
       O63          O  0.5068440  0.9190150  0.4999940    0.00000       Uiso       1.00
       O64          O  0.9190150  0.4121710  0.4999940    0.00000       Uiso       1.00
       O65          O  0.5878290  0.5068440  0.4999940    0.00000       Uiso       1.00
       O66          O  0.4931570  0.0809850  0.4999940    0.00000       Uiso       1.00
       H67          H  0.9952640  0.4416130  0.4999940    0.00000       Uiso       1.00
       H68          H  0.5583880  0.5536520  0.4999940    0.00000       Uiso       1.00
       H69          H  0.4463490  0.0047360  0.4999940    0.00000       Uiso       1.00
       H70          H  0.0047360  0.5583880  0.4999940    0.00000       Uiso       1.00
       H71          H  0.4416130  0.4463490  0.4999940    0.00000       Uiso       1.00
       H72          H  0.5536520  0.9952641  0.4999940    0.00000       Uiso       1.00
       C73          C  0.1955850  0.6054970  0.4999940    0.00000       Uiso       1.00
       C74          C  0.2321740  0.6289490  0.4999940    0.00000       Uiso       1.00
       C75          C  0.3945040  0.5900890  0.4999940    0.00000       Uiso       1.00
       C76          C  0.3710520  0.6032260  0.4999940    0.00000       Uiso       1.00
       C77          C  0.4099110  0.8044150  0.4999940    0.00000       Uiso       1.00
       C78          C  0.3967750  0.7678270  0.4999940    0.00000       Uiso       1.00
       C79          C  0.8044150  0.3945040  0.4999940    0.00000       Uiso       1.00
       C80          C  0.7678270  0.3710520  0.4999940    0.00000       Uiso       1.00
       C81          C  0.6054970  0.4099110  0.4999940    0.00000       Uiso       1.00
       C82          C  0.6289490  0.3967750  0.4999940    0.00000       Uiso       1.00
       C83          C  0.5900890  0.1955850  0.4999940    0.00000       Uiso       1.00
       C84          C  0.6032260  0.2321740  0.4999940    0.00000       Uiso       1.00
       H85          H  0.1791270  0.6157250  0.4999940    0.00000       Uiso       1.00
       H86          H  0.2391300  0.6547480  0.4999940    0.00000       Uiso       1.00
       H87          H  0.3842760  0.5634030  0.4999940    0.00000       Uiso       1.00
       H88          H  0.3452530  0.5843830  0.4999940    0.00000       Uiso       1.00
       H89          H  0.4365980  0.8208730  0.4999940    0.00000       Uiso       1.00
       H90          H  0.4156170  0.7608700  0.4999940    0.00000       Uiso       1.00
       H91          H  0.8208730  0.3842760  0.4999940    0.00000       Uiso       1.00
       H92          H  0.7608700  0.3452530  0.4999940    0.00000       Uiso       1.00
       H93          H  0.6157250  0.4365980  0.4999940    0.00000       Uiso       1.00
       H94          H  0.6547480  0.4156170  0.4999940    0.00000       Uiso       1.00
       H95          H  0.5634030  0.1791270  0.4999940    0.00000       Uiso       1.00
       H96          H  0.5843830  0.2391300  0.4999940    0.00000       Uiso       1.00
       C97          C  0.3505290  0.7939450  0.4999940    0.00000       Uiso       1.00
       C98          C  0.3377330  0.7573940  0.4999940    0.00000       Uiso       1.00
       C99          C  0.2060560  0.5565840  0.4999940    0.00000       Uiso       1.00
      C100          C  0.2426070  0.5803400  0.4999940    0.00000       Uiso       1.00
      C101          C  0.4434160  0.6494720  0.4999940    0.00000       Uiso       1.00
      C102          C  0.4196610  0.6622680  0.4999940    0.00000       Uiso       1.00
      C103          C  0.6494720  0.2060560  0.4999940    0.00000       Uiso       1.00
      C104          C  0.6622680  0.2426070  0.4999940    0.00000       Uiso       1.00
      C105          C  0.7939450  0.4434160  0.4999940    0.00000       Uiso       1.00
      C106          C  0.7573940  0.4196610  0.4999940    0.00000       Uiso       1.00
      C107          C  0.5565840  0.3505290  0.4999940    0.00000       Uiso       1.00
      C108          C  0.5803400  0.3377330  0.4999940    0.00000       Uiso       1.00
      H109          H  0.3328210  0.8026810  0.4999940    0.00000       Uiso       1.00
      H110          H  0.3111080  0.7423750  0.4999940    0.00000       Uiso       1.00
      H111          H  0.1973200  0.5301410  0.4999940    0.00000       Uiso       1.00
      H112          H  0.2576260  0.5687340  0.4999940    0.00000       Uiso       1.00
      H113          H  0.4698600  0.6671800  0.4999940    0.00000       Uiso       1.00
      H114          H  0.4312670  0.6888930  0.4999940    0.00000       Uiso       1.00
      H115          H  0.6671800  0.1973200  0.4999940    0.00000       Uiso       1.00
      H116          H  0.6888930  0.2576260  0.4999940    0.00000       Uiso       1.00
      H117          H  0.8026810  0.4698600  0.4999940    0.00000       Uiso       1.00
      H118          H  0.7423750  0.4312670  0.4999940    0.00000       Uiso       1.00
      H119          H  0.5301410  0.3328210  0.4999940    0.00000       Uiso       1.00
      H120          H  0.5687340  0.3111080  0.4999940    0.00000       Uiso       1.00
      C121          C  0.3467680  0.7046710  0.4999940    0.00000       Uiso       1.00
      C122          C  0.2953300  0.6420980  0.4999940    0.00000       Uiso       1.00
      C123          C  0.3579020  0.6532320  0.4999940    0.00000       Uiso       1.00
      C124          C  0.3869560  0.8182160  0.4999940    0.00000       Uiso       1.00
      C125          C  0.1817850  0.5687410  0.4999940    0.00000       Uiso       1.00
      C126          C  0.4312600  0.6130450  0.4999940    0.00000       Uiso       1.00
      C127          C  0.3600600  0.7423000  0.4999940    0.00000       Uiso       1.00
      C128          C  0.2577000  0.6177600  0.4999940    0.00000       Uiso       1.00
      C129          C  0.3822410  0.6399410  0.4999940    0.00000       Uiso       1.00
      C130          C  0.3690560  0.6897570  0.4999940    0.00000       Uiso       1.00
      C131          C  0.3102430  0.6793000  0.4999940    0.00000       Uiso       1.00
      C132          C  0.3207010  0.6309440  0.4999940    0.00000       Uiso       1.00
      C133          C  0.6532320  0.2953300  0.4999940    0.00000       Uiso       1.00
      C134          C  0.7046710  0.3579020  0.4999940    0.00000       Uiso       1.00
      C135          C  0.6420980  0.3467680  0.4999940    0.00000       Uiso       1.00
      C136          C  0.6130450  0.1817850  0.4999940    0.00000       Uiso       1.00
      C137          C  0.8182160  0.4312600  0.4999940    0.00000       Uiso       1.00
      C138          C  0.5687410  0.3869560  0.4999940    0.00000       Uiso       1.00
      C139          C  0.6399410  0.2577000  0.4999940    0.00000       Uiso       1.00
      C140          C  0.7423000  0.3822410  0.4999940    0.00000       Uiso       1.00
      C141          C  0.6177600  0.3600600  0.4999940    0.00000       Uiso       1.00
      C142          C  0.6309440  0.3102430  0.4999940    0.00000       Uiso       1.00
      C143          C  0.6897570  0.3207010  0.4999940    0.00000       Uiso       1.00
      C144          C  0.6793000  0.3690560  0.4999940    0.00000       Uiso       1.00
      H145          H  0.2934880  0.6884920  0.4999940    0.00000       Uiso       1.00
      H146          H  0.3115080  0.6049960  0.4999940    0.00000       Uiso       1.00
      H147          H  0.3950040  0.7065130  0.4999940    0.00000       Uiso       1.00
      H148          H  0.7065130  0.3115080  0.4999940    0.00000       Uiso       1.00
      H149          H  0.6884920  0.3950050  0.4999940    0.00000       Uiso       1.00
      H150          H  0.6049960  0.2934880  0.4999940    0.00000       Uiso       1.00
