data_TFPT-COF
_audit_creation_date              0000-00-00
_audit_creation_method            'LanYouShi'
_symmetry_space_group_name_H-M    'P1'
_cell_length_a                    46.6799011
_cell_length_b                    46.7000999
_cell_length_c                    3.4000001
_cell_angle_alpha                 90.0000000
_cell_angle_beta                  90.0000000
_cell_angle_gamma                 60.0269012
loop_
_atom_site_label
_atom_site_type_symbol
_atom_site_fract_x
_atom_site_fract_y
_atom_site_fract_z
_atom_site_U_iso_or_equiv
_atom_site_adp_type
_atom_site_occupancy
        C1          C  0.4877250  0.5346320  1.4740270    0.00000       Uiso       1.00
        C2          C  0.5224830  0.5127850  1.4812810    0.00000       Uiso       1.00
        C3          C  0.5338460  0.4783370  1.4808781    0.00000       Uiso       1.00
        C4          C  0.5122540  0.4653850  1.4735801    0.00000       Uiso       1.00
        C5          C  0.4774940  0.4872290  1.4660538    0.00000       Uiso       1.00
        C6          C  0.4661310  0.5216780  1.4665600    0.00000       Uiso       1.00
        H7          H  0.5586660  0.4619560  1.4860229    0.00000       Uiso       1.00
        H8          H  0.4413090  0.5380520  1.4612390    0.00000       Uiso       1.00
        C9          C  0.4541610  0.4761020  1.4580600    0.00000       Uiso       1.00
       O10          O  0.4236800  0.4965040  1.4595768    0.00000       Uiso       1.00
       C11          C  0.5458190  0.5239060  1.4886730    0.00000       Uiso       1.00
       O12          O  0.5762709  0.5034870  1.5019170    0.00000       Uiso       1.00
       N13          N  0.4623860  0.4438780  1.4498600    0.00000       Uiso       1.00
       H14          H  0.4860980  0.4284740  1.4497150    0.00000       Uiso       1.00
       N15          N  0.5376300  0.5561210  1.4837900    0.00000       Uiso       1.00
       H16          H  0.5139329  0.5715340  1.4742980    0.00000       Uiso       1.00
       O17          O  0.5247539  0.4319350  1.4739530    0.00000       Uiso       1.00
       O18          O  0.4752420  0.5680820  1.4744110    0.00000       Uiso       1.00
       C19          C  0.5555660  0.3733510  1.4752600    0.00000       Uiso       1.00
       C20          C  0.5580550  0.4049400  1.4780749    0.00000       Uiso       1.00
       H21          H  0.5801831  0.3514760  1.4785720    0.00000       Uiso       1.00
       H22          H  0.5424870  0.3727760  1.2117850    0.00000       Uiso       1.00
       H23          H  0.5418971  0.3728860  1.7334149    0.00000       Uiso       1.00
       H24          H  0.5715340  0.4056870  1.2178400    0.00000       Uiso       1.00
       H25          H  0.5709689  0.4057480  1.7433769    0.00000       Uiso       1.00
       C26          C  0.4443910  0.6266690  1.4699860    0.00000       Uiso       1.00
       C27          C  0.4419390  0.5950610  1.4660450    0.00000       Uiso       1.00
       H28          H  0.4197690  0.6485260  1.4634219    0.00000       Uiso       1.00
       H29          H  0.4583151  0.6270580  1.2139590    0.00000       Uiso       1.00
       H30          H  0.4571930  0.6273490  1.7354740    0.00000       Uiso       1.00
       H31          H  0.4292850  0.5941400  1.1988150    0.00000       Uiso       1.00
       H32          H  0.4282210  0.5943840  1.7241740    0.00000       Uiso       1.00
       N33          N  0.5611690  0.5686340  1.4850230    0.00000       Uiso       1.00
       C34          C  0.5537440  0.5993710  1.4804099    0.00000       Uiso       1.00
       H35          H  0.5285160  0.6195410  1.4837490    0.00000       Uiso       1.00
       N36          N  0.4388910  0.4313350  1.4351509    0.00000       Uiso       1.00
       C37          C  0.4463600  0.4005890  1.4271630    0.00000       Uiso       1.00
       H38          H  0.4715720  0.3804350  1.4394470    0.00000       Uiso       1.00
       C39          C  0.9780821  0.4874800  1.3312980    0.00000       Uiso       1.00
       C40          C  0.9652300  0.5222170  1.3406750    0.00000       Uiso       1.00
       C41          C  0.9883070  0.5335900  1.3262690    0.00000       Uiso       1.00
       C42          C  0.0227920  0.5120270  1.3033760    0.00000       Uiso       1.00
       C43          C  0.0356490  0.4772890  1.2937249    0.00000       Uiso       1.00
       C44          C  0.0125700  0.4659160  1.3082340    0.00000       Uiso       1.00
       H45          H  0.9799090  0.5583940  1.3325100    0.00000       Uiso       1.00
       H46          H  0.0209770  0.4411100  1.3018121    0.00000       Uiso       1.00
       C47          C  0.0700450  0.4539860  1.2704210    0.00000       Uiso       1.00
       O48          O  0.0801000  0.4235170  1.2707400    0.00000       Uiso       1.00
       C49          C  0.9308349  0.5455230  1.3633740    0.00000       Uiso       1.00
       O50          O  0.9208740  0.5759510  1.3777850    0.00000       Uiso       1.00
       N51          N  0.0940070  0.4622300  1.2481679    0.00000       Uiso       1.00
       H52          H  0.0857220  0.4859320  1.2492070    0.00000       Uiso       1.00
       N53          N  0.9068010  0.5373280  1.3725661    0.00000       Uiso       1.00
       H54          H  0.9150300  0.5136490  1.3619090    0.00000       Uiso       1.00
       O55          O  0.0437400  0.5245340  1.2907361    0.00000       Uiso       1.00
       O56          O  0.9571201  0.4749900  1.3447011    0.00000       Uiso       1.00
       C57          C  0.0715230  0.5553530  1.2728170    0.00000       Uiso       1.00
       C58          C  0.0374770  0.5578210  1.2936300    0.00000       Uiso       1.00
       H59          H  0.0688110  0.5799590  1.2741880    0.00000       Uiso       1.00
       H60          H  0.0842850  0.5425270  1.0040240    0.00000       Uiso       1.00
       H61          H  0.0864950  0.5414550  1.5250440    0.00000       Uiso       1.00
       H62          H  0.0224050  0.5715290  1.0394000    0.00000       Uiso       1.00
       H63          H  0.0246510  0.5704800  1.5643080    0.00000       Uiso       1.00
       C64          C  0.9293620  0.4441360  1.3594910    0.00000       Uiso       1.00
       C65          C  0.9633870  0.4417060  1.3375570    0.00000       Uiso       1.00
       H66          H  0.9320850  0.4195270  1.3548590    0.00000       Uiso       1.00
       H67          H  0.9142190  0.4582850  1.1094500    0.00000       Uiso       1.00
       H68          H  0.9167790  0.4566820  1.6302410    0.00000       Uiso       1.00
       H69          H  0.9760581  0.4293080  1.0649960    0.00000       Uiso       1.00
       H70          H  0.9786190  0.4277590  1.5896260    0.00000       Uiso       1.00
       N71          N  0.8707920  0.5608420  1.3899410    0.00000       Uiso       1.00
       C72          C  0.8474720  0.5534110  1.3989120    0.00000       Uiso       1.00
       H73          H  0.8525190  0.5281890  1.4030240    0.00000       Uiso       1.00
       N74          N  0.1299580  0.4387720  1.2173290    0.00000       Uiso       1.00
       C75          C  0.1532000  0.4462590  1.1957811    0.00000       Uiso       1.00
       H76          H  0.1482050  0.4714510  1.2072810    0.00000       Uiso       1.00
       C77          C  0.5350341  0.9776260  1.3592690    0.00000       Uiso       1.00
       C78          C  0.5131850  0.9647570  1.3822020    0.00000       Uiso       1.00
       C79          C  0.4787240  0.9878241  1.3831530    0.00000       Uiso       1.00
       C80          C  0.4657610  0.0223140  1.3624520    0.00000       Uiso       1.00
       C81          C  0.4876070  0.0351880  1.3392450    0.00000       Uiso       1.00
       C82          C  0.5220690  0.0121190  1.3383970    0.00000       Uiso       1.00
       H83          H  0.4623420  0.9794140  1.3993860    0.00000       Uiso       1.00
       H84          H  0.5384440  0.0205380  1.3219860    0.00000       Uiso       1.00
       C85          C  0.4764680  0.0695920  1.3171630    0.00000       Uiso       1.00
       O86          O  0.4968800  0.0796540  1.3050950    0.00000       Uiso       1.00
       C87          C  0.5243160  0.9303550  1.4036840    0.00000       Uiso       1.00
       O88          O  0.5039011  0.9203730  1.4304830    0.00000       Uiso       1.00
       N89          N  0.4442260  0.0935530  1.3089420    0.00000       Uiso       1.00
       H90          H  0.4288150  0.0852600  1.3194290    0.00000       Uiso       1.00
       N91          N  0.5565380  0.9063340  1.3988510    0.00000       Uiso       1.00
       H92          H  0.5719491  0.9145800  1.3787440    0.00000       Uiso       1.00
       O93          O  0.4322990  0.0432520  1.3649272    0.00000       Uiso       1.00
       O94          O  0.5684960  0.9566730  1.3575590    0.00000       Uiso       1.00
       C95          C  0.3736940  0.0710140  1.3747180    0.00000       Uiso       1.00
       C96          C  0.4052970  0.0369730  1.3832362    0.00000       Uiso       1.00
       H97          H  0.3518150  0.0682910  1.3882501    0.00000       Uiso       1.00
       H98          H  0.3728760  0.0840220  1.1043420    0.00000       Uiso       1.00
       H99          H  0.3734680  0.0857490  1.6252370    0.00000       Uiso       1.00
      H100          H  0.4058040  0.0221410  1.1305730    0.00000       Uiso       1.00
      H101          H  0.4063510  0.0239010  1.6553789    0.00000       Uiso       1.00
      C102          C  0.6271009  0.9289380  1.3446330    0.00000       Uiso       1.00
      C103          C  0.5954779  0.9629601  1.3350070    0.00000       Uiso       1.00
      H104          H  0.6489610  0.9316760  1.3278450    0.00000       Uiso       1.00
      H105          H  0.6272539  0.9140301  1.0963650    0.00000       Uiso       1.00
      H106          H  0.6280270  0.9161081  1.6168840    0.00000       Uiso       1.00
      H107          H  0.5943100  0.9758790  1.0610620    0.00000       Uiso       1.00
      H108          H  0.5950400  0.9779550  1.5854470    0.00000       Uiso       1.00
      N109          N  0.5690570  0.8703240  1.4144800    0.00000       Uiso       1.00
      C110          C  0.5998010  0.8470180  1.4101230    0.00000       Uiso       1.00
      H111          H  0.6199820  0.8520699  1.4026710    0.00000       Uiso       1.00
      N112          N  0.4316650  0.1295170  1.2798671    0.00000       Uiso       1.00
      C113          C  0.4009000  0.1527570  1.2716569    0.00000       Uiso       1.00
      H114          H  0.3807500  0.1477430  1.2947119    0.00000       Uiso       1.00
      C115          C  0.5642550  0.6496300  1.4657810    0.00000       Uiso       1.00
      C116          C  0.5853100  0.6626180  1.4562650    0.00000       Uiso       1.00
      H117          H  0.5377930  0.6663530  1.4702840    0.00000       Uiso       1.00
      H118          H  0.5747670  0.6891770  1.4535691    0.00000       Uiso       1.00
      C119          C  0.7866970  0.5639020  1.4155529    0.00000       Uiso       1.00
      C120          C  0.7526590  0.5849430  1.4214510    0.00000       Uiso       1.00
      H121          H  0.7964260  0.5374470  1.4184790    0.00000       Uiso       1.00
      H122          H  0.7366350  0.5743970  1.4288419    0.00000       Uiso       1.00
      C123          C  0.6500650  0.7862670  1.4081110    0.00000       Uiso       1.00
      C124          C  0.6630480  0.7522390  1.4117280    0.00000       Uiso       1.00
      H125          H  0.6667979  0.7960000  1.4006810    0.00000       Uiso       1.00
      H126          H  0.6896150  0.7362250  1.4070320    0.00000       Uiso       1.00
      C127          C  0.5913750  0.7954509  1.4243950    0.00000       Uiso       1.00
      C128          C  0.6037050  0.7615250  1.4281940    0.00000       Uiso       1.00
      H129          H  0.5648710  0.8119490  1.4289620    0.00000       Uiso       1.00
      H130          H  0.5865170  0.7523570  1.4356380    0.00000       Uiso       1.00
      C131          C  0.7959000  0.6133840  1.4015090    0.00000       Uiso       1.00
      C132          C  0.7619650  0.6349760  1.4072510    0.00000       Uiso       1.00
      H133          H  0.8124080  0.6233830  1.3940890    0.00000       Uiso       1.00
      H134          H  0.7528010  0.6613200  1.4041719    0.00000       Uiso       1.00
      C135          C  0.6137421  0.5909650  1.4635409    0.00000       Uiso       1.00
      C136          C  0.6353481  0.6032990  1.4540000    0.00000       Uiso       1.00
      H137          H  0.6237380  0.5644680  1.4663939    0.00000       Uiso       1.00
      H138          H  0.6616990  0.5861220  1.4496340    0.00000       Uiso       1.00
      C139          C  0.6541840  0.7010220  1.4260581    0.00000       Uiso       1.00
      C140          C  0.6139980  0.8089050  1.4142830    0.00000       Uiso       1.00
      C141          C  0.6404480  0.7378980  1.4220330    0.00000       Uiso       1.00
      C142          C  0.6453970  0.6537730  1.4394680    0.00000       Uiso       1.00
      C143          C  0.5776700  0.6135730  1.4697210    0.00000       Uiso       1.00
      C144          C  0.6222469  0.6400320  1.4498088    0.00000       Uiso       1.00
      C145          C  0.7014371  0.6450050  1.4239190    0.00000       Uiso       1.00
      C146          C  0.8093490  0.5773220  1.4054401    0.00000       Uiso       1.00
      C147          C  0.7383230  0.6218700  1.4176019    0.00000       Uiso       1.00
      N148          N  0.6883770  0.6792850  1.4202679    0.00000       Uiso       1.00
      N149          N  0.6329540  0.6879580  1.4356459    0.00000       Uiso       1.00
      N150          N  0.6796870  0.6325570  1.4335300    0.00000       Uiso       1.00
      C151          C  0.4359730  0.3502910  1.3946019    0.00000       Uiso       1.00
      C152          C  0.4149910  0.3372740  1.3703990    0.00000       Uiso       1.00
      H153          H  0.4624090  0.3335880  1.4095610    0.00000       Uiso       1.00
      H154          H  0.4255630  0.3107110  1.3670501    0.00000       Uiso       1.00
      C155          C  0.2138600  0.4358280  1.2431968    0.00000       Uiso       1.00
      C156          C  0.2478630  0.4148120  1.2626580    0.00000       Uiso       1.00
      H157          H  0.2041000  0.4622870  1.2471980    0.00000       Uiso       1.00
      H158          H  0.2638300  0.4253810  1.2813880    0.00000       Uiso       1.00
      C159          C  0.3506280  0.2134870  1.2568030    0.00000       Uiso       1.00
      C160          C  0.3376070  0.2475200  1.2615441    0.00000       Uiso       1.00
      H161          H  0.3339520  0.2037310  1.2378430    0.00000       Uiso       1.00
      H162          H  0.3110670  0.2635140  1.2461630    0.00000       Uiso       1.00
      C163          C  0.4092040  0.2043620  1.3030350    0.00000       Uiso       1.00
      C164          C  0.3968350  0.2382930  1.3082910    0.00000       Uiso       1.00
      H165          H  0.4356820  0.1878830  1.3181351    0.00000       Uiso       1.00
      H166          H  0.4139650  0.2474840  1.3273771    0.00000       Uiso       1.00
      C167          C  0.2047760  0.3863080  1.2121260    0.00000       Uiso       1.00
      C168          C  0.2386780  0.3647410  1.2312411    0.00000       Uiso       1.00
      H169          H  0.1883250  0.3762860  1.1932350    0.00000       Uiso       1.00
      H170          H  0.2478740  0.3383930  1.2268050    0.00000       Uiso       1.00
      C171          C  0.3864800  0.4089360  1.3794410    0.00000       Uiso       1.00
      C172          C  0.3649470  0.3965710  1.3550700    0.00000       Uiso       1.00
      H173          H  0.3764540  0.4354360  1.3832310    0.00000       Uiso       1.00
      H174          H  0.3386210  0.4137290  1.3404191    0.00000       Uiso       1.00
      C175          C  0.3463480  0.2987750  1.2931360    0.00000       Uiso       1.00
      C176          C  0.3866590  0.1908760  1.2772640    0.00000       Uiso       1.00
      C177          C  0.3601270  0.2618940  1.2877110    0.00000       Uiso       1.00
      C178          C  0.3550220  0.3460590  1.3228050    0.00000       Uiso       1.00
      C179          C  0.4225160  0.3863540  1.3999200    0.00000       Uiso       1.00
      C180          C  0.3780920  0.3598320  1.3491640    0.00000       Uiso       1.00
      C181          C  0.2990900  0.3547720  1.2786602    0.00000       Uiso       1.00
      C182          C  0.1912860  0.4223760  1.2174170    0.00000       Uiso       1.00
      C183          C  0.2622410  0.3778800  1.2577260    0.00000       Uiso       1.00
      N184          N  0.3121890  0.3204870  1.2738661    0.00000       Uiso       1.00
      N185          N  0.3675050  0.3118690  1.3175260    0.00000       Uiso       1.00
      N186          N  0.3207670  0.3672500  1.3032089    0.00000       Uiso       1.00
