data_TH-COF-1
_audit_creation_date              0000-00-00
_audit_creation_method            'LanYouShi'
_symmetry_space_group_name_H-M    'P1'
_cell_length_a                    22.7791004
_cell_length_b                    22.7791004
_cell_length_c                    3.5664999
_cell_angle_alpha                 90.0000000
_cell_angle_beta                  90.0000000
_cell_angle_gamma                 120.0000000
loop_
_atom_site_label
_atom_site_type_symbol
_atom_site_fract_x
_atom_site_fract_y
_atom_site_fract_z
_atom_site_U_iso_or_equiv
_atom_site_adp_type
_atom_site_occupancy
        C1          C  0.7358450  0.3832050  0.4999930    0.00000       Uiso       1.00
        C2          C  0.6167940  0.3526400  0.4999930    0.00000       Uiso       1.00
        C3          C  0.6473590  0.2641540  0.4999930    0.00000       Uiso       1.00
        C4          C  0.2641540  0.6167940  0.4999930    0.00000       Uiso       1.00
        C5          C  0.3832050  0.6473590  0.4999930    0.00000       Uiso       1.00
        C6          C  0.3526400  0.7358450  0.4999930    0.00000       Uiso       1.00
        C7          C  0.6859410  0.4020710  0.4999930    0.00000       Uiso       1.00
        C8          C  0.5979280  0.2838700  0.4999930    0.00000       Uiso       1.00
        C9          C  0.7161290  0.3140580  0.4999930    0.00000       Uiso       1.00
       C10          C  0.3140580  0.5979280  0.4999930    0.00000       Uiso       1.00
       C11          C  0.4020710  0.7161290  0.4999930    0.00000       Uiso       1.00
       C12          C  0.2838700  0.6859410  0.4999930    0.00000       Uiso       1.00
       C13          C  0.8081610  0.4361150  0.4999930    0.00000       Uiso       1.00
       C14          C  0.5638850  0.3720460  0.4999930    0.00000       Uiso       1.00
       C15          C  0.6279530  0.1918390  0.4999930    0.00000       Uiso       1.00
       C16          C  0.1918390  0.5638850  0.4999930    0.00000       Uiso       1.00
       C17          C  0.4361150  0.6279530  0.4999930    0.00000       Uiso       1.00
       C18          C  0.3720460  0.8081610  0.4999930    0.00000       Uiso       1.00
       N19          N  0.8547540  0.4190680  0.4999930    0.00000       Uiso       1.00
       N20          N  0.5809320  0.4356860  0.4999930    0.00000       Uiso       1.00
       N21          N  0.5643130  0.1452460  0.4999930    0.00000       Uiso       1.00
       N22          N  0.1452460  0.5809320  0.4999930    0.00000       Uiso       1.00
       N23          N  0.4190680  0.5643130  0.4999930    0.00000       Uiso       1.00
       N24          N  0.4356860  0.8547540  0.4999930    0.00000       Uiso       1.00
       C25          C  0.9275010  0.4616180  0.4999930    0.00000       Uiso       1.00
       C26          C  0.5383820  0.4658840  0.4999930    0.00000       Uiso       1.00
       C27          C  0.5341150  0.0724980  0.4999930    0.00000       Uiso       1.00
       C28          C  0.0724980  0.5383820  0.4999930    0.00000       Uiso       1.00
       C29          C  0.4616180  0.5341150  0.4999930    0.00000       Uiso       1.00
       C30          C  0.4658840  0.9275010  0.4999930    0.00000       Uiso       1.00
       C31          C  0.9668910  0.4300840  0.4999930    0.00000       Uiso       1.00
       C32          C  0.5699150  0.5368070  0.4999930    0.00000       Uiso       1.00
       C33          C  0.4631920  0.0331080  0.4999930    0.00000       Uiso       1.00
       C34          C  0.0331080  0.5699150  0.4999930    0.00000       Uiso       1.00
       C35          C  0.4300840  0.4631920  0.4999930    0.00000       Uiso       1.00
       C36          C  0.5368070  0.9668910  0.4999930    0.00000       Uiso       1.00
       C37          C  0.0370310  0.4666990  0.4999930    0.00000       Uiso       1.00
       C38          C  0.5333000  0.5703310  0.4999930    0.00000       Uiso       1.00
       C39          C  0.4296680  0.9629680  0.4999930    0.00000       Uiso       1.00
       C40          C  0.9629680  0.5333000  0.4999930    0.00000       Uiso       1.00
       C41          C  0.4666990  0.4296680  0.4999930    0.00000       Uiso       1.00
       C42          C  0.5703310  0.0370310  0.4999930    0.00000       Uiso       1.00
       H43          H  0.7008420  0.4553740  0.4999930    0.00000       Uiso       1.00
       H44          H  0.5446250  0.2454680  0.4999930    0.00000       Uiso       1.00
       H45          H  0.7545310  0.2991570  0.4999930    0.00000       Uiso       1.00
       H46          H  0.2991570  0.5446250  0.4999930    0.00000       Uiso       1.00
       H47          H  0.4553740  0.7545310  0.4999930    0.00000       Uiso       1.00
       H48          H  0.2454680  0.7008420  0.4999930    0.00000       Uiso       1.00
       H49          H  0.8203880  0.4883380  0.4999930    0.00000       Uiso       1.00
       H50          H  0.5116610  0.3320500  0.4999930    0.00000       Uiso       1.00
       H51          H  0.6679490  0.1796110  0.4999930    0.00000       Uiso       1.00
       H52          H  0.1796110  0.5116610  0.4999930    0.00000       Uiso       1.00
       H53          H  0.4883380  0.6679490  0.4999930    0.00000       Uiso       1.00
       H54          H  0.3320500  0.8203881  0.4999930    0.00000       Uiso       1.00
       N55          N  0.9392080  0.3587720  0.4999930    0.00000       Uiso       1.00
       N56          N  0.6412270  0.5804360  0.4999930    0.00000       Uiso       1.00
       N57          N  0.4195640  0.0607910  0.4999930    0.00000       Uiso       1.00
       N58          N  0.0607910  0.6412270  0.4999930    0.00000       Uiso       1.00
       N59          N  0.3587720  0.4195640  0.4999930    0.00000       Uiso       1.00
       N60          N  0.5804360  0.9392080  0.4999930    0.00000       Uiso       1.00
       N61          N  0.0668700  0.4250090  0.4999930    0.00000       Uiso       1.00
       N62          N  0.5749900  0.6418600  0.4999930    0.00000       Uiso       1.00
       N63          N  0.3581390  0.9331290  0.4999930    0.00000       Uiso       1.00
       N64          N  0.9331290  0.5749900  0.4999930    0.00000       Uiso       1.00
       N65          N  0.4250090  0.3581390  0.4999930    0.00000       Uiso       1.00
       N66          N  0.6418600  0.0668700  0.4999930    0.00000       Uiso       1.00
       S67          S  0.3371450  0.3327440  0.4999930    0.00000       Uiso       1.00
       S68          S  0.6672560  0.0044010  0.4999930    0.00000       Uiso       1.00
       S69          S  0.9955980  0.6628550  0.4999930    0.00000       Uiso       1.00
       S70          S  0.6628550  0.6672560  0.4999930    0.00000       Uiso       1.00
       S71          S  0.3327440  0.9955980  0.4999930    0.00000       Uiso       1.00
       S72          S  0.0044010  0.3371450  0.4999930    0.00000       Uiso       1.00
