data_Thio-COF
_audit_creation_date              0000-00-00
_audit_creation_method            'LanYouShi'
_symmetry_space_group_name_H-M    'P1'
_cell_length_a                    38.8199997
_cell_length_b                    38.8199997
_cell_length_c                    4.0500002
_cell_angle_alpha                 90.0000000
_cell_angle_beta                  90.0000000
_cell_angle_gamma                 120.0000000
loop_
_atom_site_label
_atom_site_type_symbol
_atom_site_fract_x
_atom_site_fract_y
_atom_site_fract_z
_atom_site_U_iso_or_equiv
_atom_site_adp_type
_atom_site_occupancy
       xx1          H  0.5763400  0.5892200  0.2192400    0.00000       Uiso       1.00
       xx2          H  0.6292700  0.6575500  0.2216700    0.00000       Uiso       1.00
       xx3          H  0.6184400  0.7161600  0.2197600    0.00000       Uiso       1.00
       xx4          H  0.4107800 -0.0128800  0.2192400    0.00000       Uiso       1.00
       xx5          H  0.3424500 -0.0282800  0.2216700    0.00000       Uiso       1.00
       xx6          H  0.2838400 -0.0977200  0.2197600    0.00000       Uiso       1.00
       xx7          H  0.0128800  0.4236600  0.2192400    0.00000       Uiso       1.00
       xx8          H  0.0282800  0.3707300  0.2216700    0.00000       Uiso       1.00
       xx9          H  0.0977200  0.3815600  0.2197600    0.00000       Uiso       1.00
      xx10          H  0.4236600  0.4107800  0.2192400    0.00000       Uiso       1.00
      xx11          H  0.3707300  0.3424500  0.2216700    0.00000       Uiso       1.00
      xx12          H  0.3815600  0.2838400  0.2197600    0.00000       Uiso       1.00
      xx13          H  0.5892200  0.0128800  0.2192400    0.00000       Uiso       1.00
      xx14          H  0.6575500  0.0282800  0.2216700    0.00000       Uiso       1.00
      xx15          H  0.7161600  0.0977200  0.2197600    0.00000       Uiso       1.00
      xx16          H -0.0128800  0.5763400  0.2192400    0.00000       Uiso       1.00
      xx17          H -0.0282800  0.6292700  0.2216700    0.00000       Uiso       1.00
      xx18          H -0.0977200  0.6184400  0.2197600    0.00000       Uiso       1.00
      xx19          H  0.4236600  0.4107800 -0.2192400    0.00000       Uiso       1.00
      xx20          H  0.3707300  0.3424500 -0.2216700    0.00000       Uiso       1.00
      xx21          H  0.3815600  0.2838400 -0.2197600    0.00000       Uiso       1.00
      xx22          H  0.5892200  0.0128800 -0.2192400    0.00000       Uiso       1.00
      xx23          H  0.6575500  0.0282800 -0.2216700    0.00000       Uiso       1.00
      xx24          H  0.7161600  0.0977200 -0.2197600    0.00000       Uiso       1.00
      xx25          H -0.0128800  0.5763400 -0.2192400    0.00000       Uiso       1.00
      xx26          H -0.0282800  0.6292700 -0.2216700    0.00000       Uiso       1.00
      xx27          H -0.0977200  0.6184400 -0.2197600    0.00000       Uiso       1.00
      xx28          H  0.5763400  0.5892200 -0.2192400    0.00000       Uiso       1.00
      xx29          H  0.6292700  0.6575500 -0.2216700    0.00000       Uiso       1.00
      xx30          H  0.6184400  0.7161600 -0.2197600    0.00000       Uiso       1.00
      xx31          H  0.4107800 -0.0128800 -0.2192400    0.00000       Uiso       1.00
      xx32          H  0.3424500 -0.0282800 -0.2216700    0.00000       Uiso       1.00
      xx33          H  0.2838400 -0.0977200 -0.2197600    0.00000       Uiso       1.00
      xx34          H  0.0128800  0.4236600 -0.2192400    0.00000       Uiso       1.00
      xx35          H  0.0282800  0.3707300 -0.2216700    0.00000       Uiso       1.00
      xx36          H  0.0977200  0.3815600 -0.2197600    0.00000       Uiso       1.00
      xx37          O  0.4132600 -0.2885000  0.0000000    0.00000       Uiso       1.00
      xx38          C  0.3770900 -0.3085000  0.0000000    0.00000       Uiso       1.00
      xx39          C  0.3587000  0.6473800  0.0000000    0.00000       Uiso       1.00
      xx40          H  0.4151500  0.6531300  0.0000000    0.00000       Uiso       1.00
      xx41          C  0.3837300  0.6321400  0.0000000    0.00000       Uiso       1.00
      xx42          N  0.3719800  0.5904400  0.0000000    0.00000       Uiso       1.00
      xx43          H  0.3421200  0.5689400  0.0000000    0.00000       Uiso       1.00
      xx44          C  0.3989800  0.5750300  0.0000000    0.00000       Uiso       1.00
      xx45          H  0.3515000  0.5143300  0.0000000    0.00000       Uiso       1.00
      xx46          C  0.3834500  0.5340000  0.0000000    0.00000       Uiso       1.00
      xx47          C  0.4403300  0.5991400  0.0000000    0.00000       Uiso       1.00
      xx48          H  0.4547300  0.6311700  0.0000000    0.00000       Uiso       1.00
      xx49          H  0.4945400  0.6018900  0.0000000    0.00000       Uiso       1.00
      xx50          C  0.4648200  0.5822300  0.0000000    0.00000       Uiso       1.00
      xx51          C  0.4083200  0.5175200  0.0000000    0.00000       Uiso       1.00
      xx52          H  0.3915100  0.4857000  0.0000000    0.00000       Uiso       1.00
      xx53          C  0.4510000  0.5414300  0.0000000    0.00000       Uiso       1.00
      xx54          C  0.4793600  0.5237000  0.0000000    0.00000       Uiso       1.00
      xx55          H  0.4285200  0.4656700  0.0000000    0.00000       Uiso       1.00
      xx56          C  0.4599900  0.4815400  0.0000000    0.00000       Uiso       1.00
      xx57          C  0.5226400  0.5433200  0.0000000    0.00000       Uiso       1.00
      xx58          C  0.5583600  0.5873500  0.0000000    0.00000       Uiso       1.00
      xx59          S  0.5634400  0.6368800  0.0000000    0.00000       Uiso       1.00
      xx60          C  0.6175100  0.6649400  0.0000000    0.00000       Uiso       1.00
      xx61          C  0.6306100  0.7089400  0.0000000    0.00000       Uiso       1.00
      xx62          H  0.6635400  0.7273000  0.0000000    0.00000       Uiso       1.00
      xx63          O  0.2885000  0.7017600  0.0000000    0.00000       Uiso       1.00
      xx64          C  0.3085000  0.6855900  0.0000000    0.00000       Uiso       1.00
      xx65          C  0.3526200 -0.2886800  0.0000000    0.00000       Uiso       1.00
      xx66          H  0.3468700 -0.2379800  0.0000000    0.00000       Uiso       1.00
      xx67          C  0.3678600 -0.2484100  0.0000000    0.00000       Uiso       1.00
      xx68          N  0.4095600 -0.2184600  0.0000000    0.00000       Uiso       1.00
      xx69          H  0.4310600 -0.2268200  0.0000000    0.00000       Uiso       1.00
      xx70          C  0.4249700 -0.1760500  0.0000000    0.00000       Uiso       1.00
      xx71          H  0.4856700 -0.1628300  0.0000000    0.00000       Uiso       1.00
      xx72          C  0.4660000 -0.1505500  0.0000000    0.00000       Uiso       1.00
      xx73          C  0.4008600 -0.1588100  0.0000000    0.00000       Uiso       1.00
      xx74          H  0.3688300 -0.1764400  0.0000000    0.00000       Uiso       1.00
      xx75          H  0.3981100 -0.1073500  0.0000000    0.00000       Uiso       1.00
      xx76          C  0.4177700 -0.1174100  0.0000000    0.00000       Uiso       1.00
      xx77          C  0.4824800 -0.1092000  0.0000000    0.00000       Uiso       1.00
      xx78          H  0.5143000 -0.0941900  0.0000000    0.00000       Uiso       1.00
      xx79          C  0.4585700 -0.0904300  0.0000000    0.00000       Uiso       1.00
      xx80          C  0.4763000 -0.0443400  0.0000000    0.00000       Uiso       1.00
      xx81          H  0.5343300 -0.0371500  0.0000000    0.00000       Uiso       1.00
      xx82          C  0.5184600 -0.0215500  0.0000000    0.00000       Uiso       1.00
      xx83          C  0.4566800 -0.0206800  0.0000000    0.00000       Uiso       1.00
      xx84          C  0.4126500 -0.0289900  0.0000000    0.00000       Uiso       1.00
      xx85          S  0.3631200 -0.0734400  0.0000000    0.00000       Uiso       1.00
      xx86          C  0.3350600 -0.0474300  0.0000000    0.00000       Uiso       1.00
      xx87          C  0.2910600 -0.0783300  0.0000000    0.00000       Uiso       1.00
      xx88          H  0.2727000 -0.0637600  0.0000000    0.00000       Uiso       1.00
      xx89          O  0.2982400  0.5867400  0.0000000    0.00000       Uiso       1.00
      xx90          C  0.3144100  0.6229100  0.0000000    0.00000       Uiso       1.00
      xx91          C  0.2886800  0.6413000  0.0000000    0.00000       Uiso       1.00
      xx92          H  0.2379800  0.5848500  0.0000000    0.00000       Uiso       1.00
      xx93          C  0.2484100  0.6162700  0.0000000    0.00000       Uiso       1.00
      xx94          N  0.2184600  0.6280200  0.0000000    0.00000       Uiso       1.00
      xx95          H  0.2268200  0.6578800  0.0000000    0.00000       Uiso       1.00
      xx96          C  0.1760500  0.6010200  0.0000000    0.00000       Uiso       1.00
      xx97          H  0.1628300  0.6485000  0.0000000    0.00000       Uiso       1.00
      xx98          C  0.1505500  0.6165500  0.0000000    0.00000       Uiso       1.00
      xx99          C  0.1588100  0.5596700  0.0000000    0.00000       Uiso       1.00
     xx100          H  0.1764400  0.5452700  0.0000000    0.00000       Uiso       1.00
     xx101          H  0.1073500  0.5054600  0.0000000    0.00000       Uiso       1.00
     xx102          C  0.1174100  0.5351800  0.0000000    0.00000       Uiso       1.00
     xx103          C  0.1092000  0.5916800  0.0000000    0.00000       Uiso       1.00
     xx104          H  0.0941900  0.6084900  0.0000000    0.00000       Uiso       1.00
     xx105          C  0.0904300  0.5490000  0.0000000    0.00000       Uiso       1.00
     xx106          C  0.0443400  0.5206400  0.0000000    0.00000       Uiso       1.00
     xx107          H  0.0371500  0.5714800  0.0000000    0.00000       Uiso       1.00
     xx108          C  0.0215500  0.5400100  0.0000000    0.00000       Uiso       1.00
     xx109          C  0.0206800  0.4773600  0.0000000    0.00000       Uiso       1.00
     xx110          C  0.0289900  0.4416400  0.0000000    0.00000       Uiso       1.00
     xx111          S  0.0734400  0.4365600  0.0000000    0.00000       Uiso       1.00
     xx112          C  0.0474300  0.3824900  0.0000000    0.00000       Uiso       1.00
     xx113          C  0.0783300  0.3693900  0.0000000    0.00000       Uiso       1.00
     xx114          H  0.0637600  0.3364600  0.0000000    0.00000       Uiso       1.00
     xx115          O  0.5867400  0.2885000  0.0000000    0.00000       Uiso       1.00
     xx116          C  0.6229100  0.3085000  0.0000000    0.00000       Uiso       1.00
     xx117          C  0.6413000  0.3526200  0.0000000    0.00000       Uiso       1.00
     xx118          H  0.5848500  0.3468700  0.0000000    0.00000       Uiso       1.00
     xx119          C  0.6162700  0.3678600  0.0000000    0.00000       Uiso       1.00
     xx120          N  0.6280200  0.4095600  0.0000000    0.00000       Uiso       1.00
     xx121          H  0.6578800  0.4310600  0.0000000    0.00000       Uiso       1.00
     xx122          C  0.6010200  0.4249700  0.0000000    0.00000       Uiso       1.00
     xx123          H  0.6485000  0.4856700  0.0000000    0.00000       Uiso       1.00
     xx124          C  0.6165500  0.4660000  0.0000000    0.00000       Uiso       1.00
     xx125          C  0.5596700  0.4008600  0.0000000    0.00000       Uiso       1.00
     xx126          H  0.5452700  0.3688300  0.0000000    0.00000       Uiso       1.00
     xx127          H  0.5054600  0.3981100  0.0000000    0.00000       Uiso       1.00
     xx128          C  0.5351800  0.4177700  0.0000000    0.00000       Uiso       1.00
     xx129          C  0.5916800  0.4824800  0.0000000    0.00000       Uiso       1.00
     xx130          H  0.6084900  0.5143000  0.0000000    0.00000       Uiso       1.00
     xx131          C  0.5490000  0.4585700  0.0000000    0.00000       Uiso       1.00
     xx132          C  0.5206400  0.4763000  0.0000000    0.00000       Uiso       1.00
     xx133          H  0.5714800  0.5343300  0.0000000    0.00000       Uiso       1.00
     xx134          C  0.5400100  0.5184600  0.0000000    0.00000       Uiso       1.00
     xx135          C  0.4773600  0.4566800  0.0000000    0.00000       Uiso       1.00
     xx136          C  0.4416400  0.4126500  0.0000000    0.00000       Uiso       1.00
     xx137          S  0.4365600  0.3631200  0.0000000    0.00000       Uiso       1.00
     xx138          C  0.3824900  0.3350600  0.0000000    0.00000       Uiso       1.00
     xx139          C  0.3693900  0.2910600  0.0000000    0.00000       Uiso       1.00
     xx140          H  0.3364600  0.2727000  0.0000000    0.00000       Uiso       1.00
     xx141          O -0.2885000  0.2982400  0.0000000    0.00000       Uiso       1.00
     xx142          C -0.3085000  0.3144100  0.0000000    0.00000       Uiso       1.00
     xx143          C  0.6473800  0.2886800  0.0000000    0.00000       Uiso       1.00
     xx144          H  0.6531300  0.2379800  0.0000000    0.00000       Uiso       1.00
     xx145          C  0.6321400  0.2484100  0.0000000    0.00000       Uiso       1.00
     xx146          N  0.5904400  0.2184600  0.0000000    0.00000       Uiso       1.00
     xx147          H  0.5689400  0.2268200  0.0000000    0.00000       Uiso       1.00
     xx148          C  0.5750300  0.1760500  0.0000000    0.00000       Uiso       1.00
     xx149          H  0.5143300  0.1628300  0.0000000    0.00000       Uiso       1.00
     xx150          C  0.5340000  0.1505500  0.0000000    0.00000       Uiso       1.00
     xx151          C  0.5991400  0.1588100  0.0000000    0.00000       Uiso       1.00
     xx152          H  0.6311700  0.1764400  0.0000000    0.00000       Uiso       1.00
     xx153          H  0.6018900  0.1073500  0.0000000    0.00000       Uiso       1.00
     xx154          C  0.5822300  0.1174100  0.0000000    0.00000       Uiso       1.00
     xx155          C  0.5175200  0.1092000  0.0000000    0.00000       Uiso       1.00
     xx156          H  0.4857000  0.0941900  0.0000000    0.00000       Uiso       1.00
     xx157          C  0.5414300  0.0904300  0.0000000    0.00000       Uiso       1.00
     xx158          C  0.5237000  0.0443400  0.0000000    0.00000       Uiso       1.00
     xx159          H  0.4656700  0.0371500  0.0000000    0.00000       Uiso       1.00
     xx160          C  0.4815400  0.0215500  0.0000000    0.00000       Uiso       1.00
     xx161          C  0.5433200  0.0206800  0.0000000    0.00000       Uiso       1.00
     xx162          C  0.5873500  0.0289900  0.0000000    0.00000       Uiso       1.00
     xx163          S  0.6368800  0.0734400  0.0000000    0.00000       Uiso       1.00
     xx164          C  0.6649400  0.0474300  0.0000000    0.00000       Uiso       1.00
     xx165          C  0.7089400  0.0783300  0.0000000    0.00000       Uiso       1.00
     xx166          H  0.7273000  0.0637600  0.0000000    0.00000       Uiso       1.00
     xx167          O  0.7017600  0.4132600  0.0000000    0.00000       Uiso       1.00
     xx168          C  0.6855900  0.3770900  0.0000000    0.00000       Uiso       1.00
     xx169          C -0.2886800  0.3587000  0.0000000    0.00000       Uiso       1.00
     xx170          H -0.2379800  0.4151500  0.0000000    0.00000       Uiso       1.00
     xx171          C -0.2484100  0.3837300  0.0000000    0.00000       Uiso       1.00
     xx172          N -0.2184600  0.3719800  0.0000000    0.00000       Uiso       1.00
     xx173          H -0.2268200  0.3421200  0.0000000    0.00000       Uiso       1.00
     xx174          C -0.1760500  0.3989800  0.0000000    0.00000       Uiso       1.00
     xx175          H -0.1628300  0.3515000  0.0000000    0.00000       Uiso       1.00
     xx176          C -0.1505500  0.3834500  0.0000000    0.00000       Uiso       1.00
     xx177          C -0.1588100  0.4403300  0.0000000    0.00000       Uiso       1.00
     xx178          H -0.1764400  0.4547300  0.0000000    0.00000       Uiso       1.00
     xx179          H -0.1073500  0.4945400  0.0000000    0.00000       Uiso       1.00
     xx180          C -0.1174100  0.4648200  0.0000000    0.00000       Uiso       1.00
     xx181          C -0.1092000  0.4083200  0.0000000    0.00000       Uiso       1.00
     xx182          H -0.0941900  0.3915100  0.0000000    0.00000       Uiso       1.00
     xx183          C -0.0904300  0.4510000  0.0000000    0.00000       Uiso       1.00
     xx184          C -0.0443400  0.4793600  0.0000000    0.00000       Uiso       1.00
     xx185          H -0.0371500  0.4285200  0.0000000    0.00000       Uiso       1.00
     xx186          C -0.0215500  0.4599900  0.0000000    0.00000       Uiso       1.00
     xx187          C -0.0206800  0.5226400  0.0000000    0.00000       Uiso       1.00
     xx188          C -0.0289900  0.5583600  0.0000000    0.00000       Uiso       1.00
     xx189          S -0.0734400  0.5634400  0.0000000    0.00000       Uiso       1.00
     xx190          C -0.0474300  0.6175100  0.0000000    0.00000       Uiso       1.00
     xx191          C -0.0783300  0.6306100  0.0000000    0.00000       Uiso       1.00
     xx192          H -0.0637600  0.6635400  0.0000000    0.00000       Uiso       1.00
