data_TPA-COF
_audit_creation_date              0000-00-00
_audit_creation_method            'LanYouShi'
_symmetry_space_group_name_H-M    'P1'
_cell_length_a                    20.9239006
_cell_length_b                    20.9239006
_cell_length_c                    3.9196000
_cell_angle_alpha                 90.0000000
_cell_angle_beta                  90.0000000
_cell_angle_gamma                 120.0000000
loop_
_atom_site_label
_atom_site_type_symbol
_atom_site_fract_x
_atom_site_fract_y
_atom_site_fract_z
_atom_site_U_iso_or_equiv
_atom_site_adp_type
_atom_site_occupancy
       xx1          C  0.3718300  0.6266800 -0.1470200    0.00000       Uiso       1.00
       xx2          C  0.4403000  0.6556600  0.0206900    0.00000       Uiso       1.00
       xx3          C  0.4773900  0.6164100  0.0403900    0.00000       Uiso       1.00
       xx4          C  0.4470300  0.5452100 -0.1014500    0.00000       Uiso       1.00
       xx5          C  0.3793300  0.5170600 -0.2749300    0.00000       Uiso       1.00
       xx6          C  0.3426100  0.5567000 -0.2982600    0.00000       Uiso       1.00
       xx7          N  0.4779900  0.4995000 -0.0890700    0.00000       Uiso       1.00
       xx8          C  0.6332400  0.3781300  0.1156200    0.00000       Uiso       1.00
       xx9          C  0.5649100  0.3543600 -0.0472300    0.00000       Uiso       1.00
      xx10          C  0.5325800  0.3980600 -0.0511300    0.00000       Uiso       1.00
      xx11          C  0.5671100  0.4678200  0.1066600    0.00000       Uiso       1.00
      xx12          C  0.6349000  0.4913000  0.2712900    0.00000       Uiso       1.00
      xx13          C  0.6674400  0.4475200  0.2756000    0.00000       Uiso       1.00
      xx14          C  0.5345200  0.5150900  0.0996700    0.00000       Uiso       1.00
      xx15          H  0.4645300  0.7098400  0.1380600    0.00000       Uiso       1.00
      xx16          H  0.5295800  0.6410800  0.1781500    0.00000       Uiso       1.00
      xx17          H  0.3568400  0.4631200 -0.3956800    0.00000       Uiso       1.00
      xx18          H  0.2905800  0.5332500 -0.4351000    0.00000       Uiso       1.00
      xx19          H  0.5373500  0.3009100 -0.1722100    0.00000       Uiso       1.00
      xx20          H  0.4805800  0.3801200 -0.1839500    0.00000       Uiso       1.00
      xx21          H  0.6619000  0.5442400  0.4039500    0.00000       Uiso       1.00
      xx22          H  0.7198000  0.4669300  0.4055600    0.00000       Uiso       1.00
      xx23          H  0.5615100  0.5643000  0.2651200    0.00000       Uiso       1.00
      xx24          C  0.3733200  0.7451500 -0.1470200    0.00000       Uiso       1.00
      xx25          C  0.3443400  0.7846400  0.0206900    0.00000       Uiso       1.00
      xx26          C  0.3835900  0.8609800  0.0403900    0.00000       Uiso       1.00
      xx27          C  0.4547900  0.9018201 -0.1014500    0.00000       Uiso       1.00
      xx28          C  0.4829400  0.8622700 -0.2749300    0.00000       Uiso       1.00
      xx29          C  0.4433000  0.7859100 -0.2982600    0.00000       Uiso       1.00
      xx30          N  0.5005000  0.9784899 -0.0890700    0.00000       Uiso       1.00
      xx31          C  0.6218700  0.2551100  0.1156200    0.00000       Uiso       1.00
      xx32          C  0.6456400  0.2105500 -0.0472300    0.00000       Uiso       1.00
      xx33          C  0.6019400  0.1345200 -0.0511300    0.00000       Uiso       1.00
      xx34          C  0.5321800  0.0992900  0.1066600    0.00000       Uiso       1.00
      xx35          C  0.5087000  0.1436000  0.2712900    0.00000       Uiso       1.00
      xx36          C  0.5524800  0.2199200  0.2756000    0.00000       Uiso       1.00
      xx37          C  0.4849100  0.0194300  0.0996700    0.00000       Uiso       1.00
      xx38          H  0.2901600  0.7546900  0.1380600    0.00000       Uiso       1.00
      xx39          H  0.3589200  0.8885000  0.1781500    0.00000       Uiso       1.00
      xx40          H  0.5368800  0.8937200 -0.3956800    0.00000       Uiso       1.00
      xx41          H  0.4667500  0.7573300 -0.4351000    0.00000       Uiso       1.00
      xx42          H  0.6990900  0.2364400 -0.1722100    0.00000       Uiso       1.00
      xx43          H  0.6198800  0.1004600 -0.1839500    0.00000       Uiso       1.00
      xx44          H  0.4557600  0.1176600  0.4039500    0.00000       Uiso       1.00
      xx45          H  0.5330700  0.2528700  0.4055600    0.00000       Uiso       1.00
      xx46          H  0.4357000  0.9972101  0.2651200    0.00000       Uiso       1.00
      xx47          C  0.2548500  0.6281700 -0.1470200    0.00000       Uiso       1.00
      xx48          C  0.2153600  0.5597000  0.0206900    0.00000       Uiso       1.00
      xx49          C  0.1390200  0.5226100  0.0403900    0.00000       Uiso       1.00
      xx50          C  0.0981800  0.5529700 -0.1014500    0.00000       Uiso       1.00
      xx51          C  0.1377300  0.6206700 -0.2749300    0.00000       Uiso       1.00
      xx52          C  0.2140900  0.6573900 -0.2982600    0.00000       Uiso       1.00
      xx53          N  0.0215100  0.5220100 -0.0890700    0.00000       Uiso       1.00
      xx54          C  0.7448900  0.3667600  0.1156200    0.00000       Uiso       1.00
      xx55          C  0.7894500  0.4350900 -0.0472300    0.00000       Uiso       1.00
      xx56          C  0.8654800  0.4674200 -0.0511300    0.00000       Uiso       1.00
      xx57          C  0.9007100  0.4328900  0.1066600    0.00000       Uiso       1.00
      xx58          C  0.8564000  0.3651000  0.2712900    0.00000       Uiso       1.00
      xx59          C  0.7800800  0.3325600  0.2756000    0.00000       Uiso       1.00
      xx60          C  0.9805700  0.4654800  0.0996700    0.00000       Uiso       1.00
      xx61          H  0.2453100  0.5354700  0.1380600    0.00000       Uiso       1.00
      xx62          H  0.1115000  0.4704200  0.1781500    0.00000       Uiso       1.00
      xx63          H  0.1062800  0.6431600 -0.3956800    0.00000       Uiso       1.00
      xx64          H  0.2426700  0.7094200 -0.4351000    0.00000       Uiso       1.00
      xx65          H  0.7635600  0.4626500 -0.1722100    0.00000       Uiso       1.00
      xx66          H  0.8995400  0.5194200 -0.1839500    0.00000       Uiso       1.00
      xx67          H  0.8823400  0.3381000  0.4039500    0.00000       Uiso       1.00
      xx68          H  0.7471300  0.2802000  0.4055600    0.00000       Uiso       1.00
      xx69          H  0.0027900  0.4384900  0.2651200    0.00000       Uiso       1.00
      xx70          N  0.6666670  0.3333330  0.1160100    0.00000       Uiso       1.00
      xx71          N  0.3333330  0.6666670 -0.1601000    0.00000       Uiso       1.00
