data_TPA-COF_2
_audit_creation_date              0000-00-00
_audit_creation_method            'LanYouShi'
_symmetry_space_group_name_H-M    'P1'
_cell_length_a                    23.4585991
_cell_length_b                    23.4585991
_cell_length_c                    3.8991001
_cell_angle_alpha                 90.0000000
_cell_angle_beta                  90.0000000
_cell_angle_gamma                 120.0000000
loop_
_atom_site_label
_atom_site_type_symbol
_atom_site_fract_x
_atom_site_fract_y
_atom_site_fract_z
_atom_site_U_iso_or_equiv
_atom_site_adp_type
_atom_site_occupancy
       xx1          C  0.0712700  0.0376600  1.1169600    0.00000       Uiso       1.00
       xx2          C  0.1054300  0.1007500  1.2637800    0.00000       Uiso       1.00
       xx3          C  0.1739800  0.1377300  1.2488800    0.00000       Uiso       1.00
       xx4          C  0.2096200  0.1120200  1.0905401    0.00000       Uiso       1.00
       xx5          C  0.1760700  0.0488500  0.9459000    0.00000       Uiso       1.00
       xx6          C  0.1075700  0.0122700  0.9578100    0.00000       Uiso       1.00
       xx7          N  0.2796700  0.1514100  1.0740900    0.00000       Uiso       1.00
       xx8          C  0.3166800  0.1295000  0.9558300    0.00000       Uiso       1.00
       xx9          C  0.3880700  0.1719200  0.9376100    0.00000       Uiso       1.00
      xx10          C  0.4268300  0.1445900  0.8456700    0.00000       Uiso       1.00
      xx11          C  0.4951800  0.1842100  0.8297300    0.00000       Uiso       1.00
      xx12          C  0.5254300  0.2517300  0.9032400    0.00000       Uiso       1.00
      xx13          C  0.4861000  0.2788800  0.9929300    0.00000       Uiso       1.00
      xx14          C  0.4178700  0.2392400  1.0107501    0.00000       Uiso       1.00
      xx15          C  0.5977100  0.2934900  0.8930500    0.00000       Uiso       1.00
      xx16          C  0.7349700  0.3727900  0.8933500    0.00000       Uiso       1.00
      xx17          H  0.0771300  0.1222500  1.3969300    0.00000       Uiso       1.00
      xx18          H  0.2010300  0.1891100  1.3662000    0.00000       Uiso       1.00
      xx19          H  0.2048400  0.0273100  0.8181900    0.00000       Uiso       1.00
      xx20          H  0.0810100  0.9612200  0.8365800    0.00000       Uiso       1.00
      xx21          H  0.2936300  0.0763800  0.8640000    0.00000       Uiso       1.00
      xx22          H  0.4026600  0.0898800  0.7835500    0.00000       Uiso       1.00
      xx23          H  0.5268200  0.1617800  0.7566300    0.00000       Uiso       1.00
      xx24          H  0.5099000  0.3336900  1.0517999    0.00000       Uiso       1.00
      xx25          H  0.3863200  0.2617200  1.0850199    0.00000       Uiso       1.00
      xx26          H  0.7908200  0.4054600  0.8938400    0.00000       Uiso       1.00
      xx27          C  0.9623401  0.0336100  1.1169600    0.00000       Uiso       1.00
      xx28          C  0.8992500  0.0046800  1.2637800    0.00000       Uiso       1.00
      xx29          C  0.8622700  0.0362500  1.2488800    0.00000       Uiso       1.00
      xx30          C  0.8879800  0.0976000  1.0905401    0.00000       Uiso       1.00
      xx31          C  0.9511499  0.1272200  0.9459000    0.00000       Uiso       1.00
      xx32          C  0.9877301  0.0953000  0.9578100    0.00000       Uiso       1.00
      xx33          N  0.8485900  0.1282600  1.0740900    0.00000       Uiso       1.00
      xx34          C  0.8705001  0.1871800  0.9558300    0.00000       Uiso       1.00
      xx35          C  0.8280800  0.2161500  0.9376100    0.00000       Uiso       1.00
      xx36          C  0.8554100  0.2822400  0.8456700    0.00000       Uiso       1.00
      xx37          C  0.8157900  0.3109700  0.8297300    0.00000       Uiso       1.00
      xx38          C  0.7482700  0.2737000  0.9032400    0.00000       Uiso       1.00
      xx39          C  0.7211200  0.2072200  0.9929300    0.00000       Uiso       1.00
      xx40          C  0.7607600  0.1786300  1.0107501    0.00000       Uiso       1.00
      xx41          C  0.7065100  0.3042200  0.8930500    0.00000       Uiso       1.00
      xx42          C  0.6272100  0.3621800  0.8933500    0.00000       Uiso       1.00
      xx43          H  0.8777500  0.9548799  1.3969300    0.00000       Uiso       1.00
      xx44          H  0.8108900  0.0119200  1.3662000    0.00000       Uiso       1.00
      xx45          H  0.9726900  0.1775300  0.8181900    0.00000       Uiso       1.00
      xx46          H  0.0387800  0.1197900  0.8365800    0.00000       Uiso       1.00
      xx47          H  0.9236200  0.2172500  0.8640000    0.00000       Uiso       1.00
      xx48          H  0.9101200  0.3127800  0.7835500    0.00000       Uiso       1.00
      xx49          H  0.8382200  0.3650400  0.7566300    0.00000       Uiso       1.00
      xx50          H  0.6663100  0.1762100  1.0517999    0.00000       Uiso       1.00
      xx51          H  0.7382800  0.1246000  1.0850199    0.00000       Uiso       1.00
      xx52          H  0.5945400  0.3853600  0.8938400    0.00000       Uiso       1.00
      xx53          C  0.9663900  0.9287300  1.1169600    0.00000       Uiso       1.00
      xx54          C  0.9953200  0.8945699  1.2637800    0.00000       Uiso       1.00
      xx55          C  0.9637500  0.8260200  1.2488800    0.00000       Uiso       1.00
      xx56          C  0.9024000  0.7903801  1.0905401    0.00000       Uiso       1.00
      xx57          C  0.8727800  0.8239300  0.9459000    0.00000       Uiso       1.00
      xx58          C  0.9047000  0.8924300  0.9578100    0.00000       Uiso       1.00
      xx59          N  0.8717400  0.7203300  1.0740900    0.00000       Uiso       1.00
      xx60          C  0.8128200  0.6833200  0.9558300    0.00000       Uiso       1.00
      xx61          C  0.7838500  0.6119300  0.9376100    0.00000       Uiso       1.00
      xx62          C  0.7177600  0.5731700  0.8456700    0.00000       Uiso       1.00
      xx63          C  0.6890300  0.5048200  0.8297300    0.00000       Uiso       1.00
      xx64          C  0.7263000  0.4745700  0.9032400    0.00000       Uiso       1.00
      xx65          C  0.7927800  0.5139000  0.9929300    0.00000       Uiso       1.00
      xx66          C  0.8213700  0.5821300  1.0107501    0.00000       Uiso       1.00
      xx67          C  0.6957800  0.4022900  0.8930500    0.00000       Uiso       1.00
      xx68          C  0.6378200  0.2650300  0.8933500    0.00000       Uiso       1.00
      xx69          H  0.0451200  0.9228700  1.3969300    0.00000       Uiso       1.00
      xx70          H  0.9880800  0.7989700  1.3662000    0.00000       Uiso       1.00
      xx71          H  0.8224700  0.7951600  0.8181900    0.00000       Uiso       1.00
      xx72          H  0.8802100  0.9189900  0.8365800    0.00000       Uiso       1.00
      xx73          H  0.7827500  0.7063700  0.8640000    0.00000       Uiso       1.00
      xx74          H  0.6872200  0.5973400  0.7835500    0.00000       Uiso       1.00
      xx75          H  0.6349600  0.4731800  0.7566300    0.00000       Uiso       1.00
      xx76          H  0.8237900  0.4901000  1.0517999    0.00000       Uiso       1.00
      xx77          H  0.8754000  0.6136800  1.0850199    0.00000       Uiso       1.00
      xx78          H  0.6146400  0.2091800  0.8938400    0.00000       Uiso       1.00
      xx79          N  0.0000000  0.0000000  1.1238600    0.00000       Uiso       1.00
