data_TpBD
_audit_creation_date              0000-00-00
_audit_creation_method            'LanYouShi'
_symmetry_space_group_name_H-M    'P1'
_cell_length_a                    29.2870998
_cell_length_b                    29.2870998
_cell_length_c                    3.2500000
_cell_angle_alpha                 90.0000000
_cell_angle_beta                  90.0000000
_cell_angle_gamma                 120.0000000
loop_
_atom_site_label
_atom_site_type_symbol
_atom_site_fract_x
_atom_site_fract_y
_atom_site_fract_z
_atom_site_U_iso_or_equiv
_atom_site_adp_type
_atom_site_occupancy
        O1          O  0.2956000  0.5612000  0.0000000    0.00000       Uiso       1.00
        N2          N  0.3872000  0.5781000  0.0000000    0.00000       Uiso       1.00
        C3          C  0.3135000  0.6107000  0.0000000    0.00000       Uiso       1.00
        C4          C  0.4039000  0.6298000  0.0000000    0.00000       Uiso       1.00
        C5          C  0.4195000  0.5569000  0.0000000    0.00000       Uiso       1.00
        C6          C  0.4739000  0.5883000  0.0000000    0.00000       Uiso       1.00
        C7          C  0.5046000  0.5656000  0.0000000    0.00000       Uiso       1.00
        C8          C  0.4829000  0.5112000  0.0000000    0.00000       Uiso       1.00
        C9          C  0.4281000  0.4803000  0.0000000    0.00000       Uiso       1.00
       C10          C  0.3968000  0.5027000  0.0000000    0.00000       Uiso       1.00
       C11          C  0.3684000  0.6472000  0.0000000    0.00000       Uiso       1.00
       H12          H  0.4458000  0.6592000  0.0000000    0.00000       Uiso       1.00
       H13          H  0.4926000  0.6314000  0.0000000    0.00000       Uiso       1.00
       H14          H  0.3442000  0.5557000  0.0000000    0.00000       Uiso       1.00
       H15          H  0.3534000  0.4783000  0.0000000    0.00000       Uiso       1.00
       H16          H  0.5476000  0.5916000  0.0000000    0.00000       Uiso       1.00
       H17          H  0.4091000  0.4372000  0.0000000    0.00000       Uiso       1.00
       O18          O  0.4388000  0.7344000  0.0000000    0.00000       Uiso       1.00
       N19          N  0.4219000  0.8091000  0.0000000    0.00000       Uiso       1.00
       C20          C  0.3893000  0.7028000  0.0000000    0.00000       Uiso       1.00
       C21          C  0.3702000  0.7741000  0.0000000    0.00000       Uiso       1.00
       C22          C  0.4431000  0.8626001  0.0000000    0.00000       Uiso       1.00
       C23          C  0.4117000  0.8856000  0.0000000    0.00000       Uiso       1.00
       C24          C  0.4344000  0.9390001  0.0000000    0.00000       Uiso       1.00
       C25          C  0.4888000  0.9717000  0.0000000    0.00000       Uiso       1.00
       C26          C  0.5197000  0.9478000  0.0000000    0.00000       Uiso       1.00
       C27          C  0.4973000  0.8941000  0.0000000    0.00000       Uiso       1.00
       C28          C  0.3528000  0.7212000  0.0000000    0.00000       Uiso       1.00
       H29          H  0.3408000  0.7866000  0.0000000    0.00000       Uiso       1.00
       H30          H  0.3686000  0.8612000  0.0000000    0.00000       Uiso       1.00
       H31          H  0.4443000  0.7885000  0.0000000    0.00000       Uiso       1.00
       H32          H  0.5217000  0.8751000  0.0000000    0.00000       Uiso       1.00
       H33          H  0.4084000  0.9560000  0.0000000    0.00000       Uiso       1.00
       H34          H  0.5628000  0.9719000  0.0000000    0.00000       Uiso       1.00
       O35          O  0.2656000  0.7044000  0.0000000    0.00000       Uiso       1.00
       N36          N  0.1909000  0.6128000  0.0000000    0.00000       Uiso       1.00
       C37          C  0.2972000  0.6865000  0.0000000    0.00000       Uiso       1.00
       C38          C  0.2259000  0.5961000  0.0000000    0.00000       Uiso       1.00
       C39          C  0.1374000  0.5805000  0.0000000    0.00000       Uiso       1.00
       C40          C  0.1144000  0.5261000  0.0000000    0.00000       Uiso       1.00
       C41          C  0.0610000  0.4954000  0.0000000    0.00000       Uiso       1.00
       C42          C  0.0283000  0.5171000  0.0000000    0.00000       Uiso       1.00
       C43          C  0.0522000  0.5719000  0.0000000    0.00000       Uiso       1.00
       C44          C  0.1059000  0.6032000  0.0000000    0.00000       Uiso       1.00
       C45          C  0.2788000  0.6316000  0.0000000    0.00000       Uiso       1.00
       H46          H  0.2134000  0.5542000  0.0000000    0.00000       Uiso       1.00
       H47          H  0.1388000  0.5074000  0.0000000    0.00000       Uiso       1.00
       H48          H  0.2115000  0.6558000  0.0000000    0.00000       Uiso       1.00
       H49          H  0.1249000  0.6466001  0.0000000    0.00000       Uiso       1.00
       H50          H  0.0440000  0.4524000  0.0000000    0.00000       Uiso       1.00
       H51          H  0.0281000  0.5909000  0.0000000    0.00000       Uiso       1.00
       O52          O  0.7044000  0.4388000  0.0000000    0.00000       Uiso       1.00
       N53          N  0.6128000  0.4219000  0.0000000    0.00000       Uiso       1.00
       C54          C  0.6865000  0.3893000  0.0000000    0.00000       Uiso       1.00
       C55          C  0.5961000  0.3702000  0.0000000    0.00000       Uiso       1.00
       C56          C  0.5805000  0.4431000  0.0000000    0.00000       Uiso       1.00
       C57          C  0.5261000  0.4117000  0.0000000    0.00000       Uiso       1.00
       C58          C  0.4954000  0.4344000  0.0000000    0.00000       Uiso       1.00
       C59          C  0.5171000  0.4888000  0.0000000    0.00000       Uiso       1.00
       C60          C  0.5719000  0.5197000  0.0000000    0.00000       Uiso       1.00
       C61          C  0.6032000  0.4973000  0.0000000    0.00000       Uiso       1.00
       C62          C  0.6316000  0.3528000  0.0000000    0.00000       Uiso       1.00
       H63          H  0.5542000  0.3408000  0.0000000    0.00000       Uiso       1.00
       H64          H  0.5074000  0.3686000  0.0000000    0.00000       Uiso       1.00
       H65          H  0.6558000  0.4443000  0.0000000    0.00000       Uiso       1.00
       H66          H  0.6466000  0.5217000  0.0000000    0.00000       Uiso       1.00
       H67          H  0.4524000  0.4084000  0.0000000    0.00000       Uiso       1.00
       H68          H  0.5909000  0.5628000  0.0000000    0.00000       Uiso       1.00
       O69          O  0.5612000  0.2656000  0.0000000    0.00000       Uiso       1.00
       N70          N  0.5781000  0.1909000  0.0000000    0.00000       Uiso       1.00
       C71          C  0.6107000  0.2972000  0.0000000    0.00000       Uiso       1.00
       C72          C  0.6298000  0.2259000  0.0000000    0.00000       Uiso       1.00
       C73          C  0.5569000  0.1374000  0.0000000    0.00000       Uiso       1.00
       C74          C  0.5883000  0.1144000  0.0000000    0.00000       Uiso       1.00
       C75          C  0.5656000  0.0610000  0.0000000    0.00000       Uiso       1.00
       C76          C  0.5112000  0.0283000  0.0000000    0.00000       Uiso       1.00
       C77          C  0.4803000  0.0522000  0.0000000    0.00000       Uiso       1.00
       C78          C  0.5027000  0.1059000  0.0000000    0.00000       Uiso       1.00
       C79          C  0.6472000  0.2788000  0.0000000    0.00000       Uiso       1.00
       H80          H  0.6592000  0.2134000  0.0000000    0.00000       Uiso       1.00
       H81          H  0.6314000  0.1388000  0.0000000    0.00000       Uiso       1.00
       H82          H  0.5557000  0.2115000  0.0000000    0.00000       Uiso       1.00
       H83          H  0.4783000  0.1249000  0.0000000    0.00000       Uiso       1.00
       H84          H  0.5916000  0.0440000  0.0000000    0.00000       Uiso       1.00
       H85          H  0.4372000  0.0281000  0.0000000    0.00000       Uiso       1.00
       O86          O  0.7344000  0.2956000  0.0000000    0.00000       Uiso       1.00
       N87          N  0.8091000  0.3872000  0.0000000    0.00000       Uiso       1.00
       C88          C  0.7028000  0.3135000  0.0000000    0.00000       Uiso       1.00
       C89          C  0.7741000  0.4039000  0.0000000    0.00000       Uiso       1.00
       C90          C  0.8626000  0.4195000  0.0000000    0.00000       Uiso       1.00
       C91          C  0.8856000  0.4739000  0.0000000    0.00000       Uiso       1.00
       C92          C  0.9390000  0.5046000  0.0000000    0.00000       Uiso       1.00
       C93          C  0.9717000  0.4829000  0.0000000    0.00000       Uiso       1.00
       C94          C  0.9478000  0.4281000  0.0000000    0.00000       Uiso       1.00
       C95          C  0.8941000  0.3968000  0.0000000    0.00000       Uiso       1.00
       C96          C  0.7212000  0.3684000  0.0000000    0.00000       Uiso       1.00
       H97          H  0.7866000  0.4458000  0.0000000    0.00000       Uiso       1.00
       H98          H  0.8612000  0.4926000  0.0000000    0.00000       Uiso       1.00
       H99          H  0.7885000  0.3442000  0.0000000    0.00000       Uiso       1.00
      H100          H  0.8751000  0.3534000  0.0000000    0.00000       Uiso       1.00
      H101          H  0.9559999  0.5476000  0.0000000    0.00000       Uiso       1.00
      H102          H  0.9719000  0.4091000  0.0000000    0.00000       Uiso       1.00
