data_TpBD-2NO2-2
_audit_creation_date              0000-00-00
_audit_creation_method            'LanYouShi'
_symmetry_space_group_name_H-M    'P1'
_cell_length_a                    31.5400009
_cell_length_b                    31.5400009
_cell_length_c                    3.4900000
_cell_angle_alpha                 90.0000000
_cell_angle_beta                  90.0000000
_cell_angle_gamma                 120.0000000
loop_
_atom_site_label
_atom_site_type_symbol
_atom_site_fract_x
_atom_site_fract_y
_atom_site_fract_z
_atom_site_U_iso_or_equiv
_atom_site_adp_type
_atom_site_occupancy
        O1          O  0.3053900  0.5710800  0.0000000    0.00000       Uiso       1.00
        N2          N  0.4052500  0.5930300  0.0000000    0.00000       Uiso       1.00
        C3          C  0.3185700  0.6143900  0.0000000    0.00000       Uiso       1.00
        C4          C  0.4098200  0.6412700  0.0000000    0.00000       Uiso       1.00
        C5          C  0.4387400  0.5730500  0.0000000    0.00000       Uiso       1.00
        C6          C  0.4921400  0.5970200  0.0000000    0.00000       Uiso       1.00
        C7          C  0.5137300  0.5666900  0.0000000    0.00000       Uiso       1.00
        C8          C  0.4872600  0.5151700  0.0000000    0.00000       Uiso       1.00
        C9          C  0.4362400  0.4934000  0.0000000    0.00000       Uiso       1.00
       C10          C  0.4133800  0.5212200  0.0000000    0.00000       Uiso       1.00
       C11          C  0.3720000  0.6514900  0.0000000    0.00000       Uiso       1.00
       H12          H  0.4447800  0.6726999  0.0000000    0.00000       Uiso       1.00
       N13          N  0.5272500  0.6493300  0.0000000    0.00000       Uiso       1.00
       H14          H  0.3693100  0.5651500  0.0000000    0.00000       Uiso       1.00
       H15          H  0.3736800  0.5006800  0.0000000    0.00000       Uiso       1.00
       H16          H  0.5528100  0.5849400  0.0000000    0.00000       Uiso       1.00
       H17          H  0.4120000  0.4543900  0.0000000    0.00000       Uiso       1.00
       O18          O  0.4289200  0.7343099  0.0000000    0.00000       Uiso       1.00
       N19          N  0.4069700  0.8122200  0.0000000    0.00000       Uiso       1.00
       C20          C  0.3856100  0.7041800  0.0000000    0.00000       Uiso       1.00
       C21          C  0.3587300  0.7685500  0.0000000    0.00000       Uiso       1.00
       C22          C  0.4269500  0.8656900  0.0000000    0.00000       Uiso       1.00
       C23          C  0.4029800  0.8951200  0.0000000    0.00000       Uiso       1.00
       C24          C  0.4333100  0.9470400  0.0000000    0.00000       Uiso       1.00
       C25          C  0.4848300  0.9720900  0.0000000    0.00000       Uiso       1.00
       C26          C  0.5066000  0.9428399  0.0000000    0.00000       Uiso       1.00
       C27          C  0.4787800  0.8921600  0.0000000    0.00000       Uiso       1.00
       C28          C  0.3485100  0.7205100  0.0000000    0.00000       Uiso       1.00
       H29          H  0.3273000  0.7720800  0.0000000    0.00000       Uiso       1.00
       N30          N  0.3506700  0.8779200  0.0000000    0.00000       Uiso       1.00
       H31          H  0.4348500  0.8041600  0.0000000    0.00000       Uiso       1.00
       H32          H  0.4993200  0.8730000  0.0000000    0.00000       Uiso       1.00
       H33          H  0.4150600  0.9678700  0.0000000    0.00000       Uiso       1.00
       H34          H  0.5456100  0.9576100  0.0000000    0.00000       Uiso       1.00
       O35          O  0.2656900  0.6946100  0.0000000    0.00000       Uiso       1.00
       N36          N  0.1877800  0.5947500  0.0000000    0.00000       Uiso       1.00
       C37          C  0.2958200  0.6814299  0.0000000    0.00000       Uiso       1.00
       C38          C  0.2314500  0.5901800  0.0000000    0.00000       Uiso       1.00
       C39          C  0.1343100  0.5612600  0.0000000    0.00000       Uiso       1.00
       C40          C  0.1048800  0.5078600  0.0000000    0.00000       Uiso       1.00
       C41          C  0.0529600  0.4862700  0.0000000    0.00000       Uiso       1.00
       C42          C  0.0279100  0.5127400  0.0000000    0.00000       Uiso       1.00
       C43          C  0.0571600  0.5637600  0.0000000    0.00000       Uiso       1.00
       C44          C  0.1078400  0.5866200  0.0000000    0.00000       Uiso       1.00
       C45          C  0.2794900  0.6280001  0.0000000    0.00000       Uiso       1.00
       H46          H  0.2279200  0.5552200  0.0000000    0.00000       Uiso       1.00
       N47          N  0.1220800  0.4727500  0.0000000    0.00000       Uiso       1.00
       H48          H  0.1958400  0.6306899  0.0000000    0.00000       Uiso       1.00
       H49          H  0.1270000  0.6263200  0.0000000    0.00000       Uiso       1.00
       H50          H  0.0321300  0.4471900  0.0000000    0.00000       Uiso       1.00
       H51          H  0.0423900  0.5880000  0.0000000    0.00000       Uiso       1.00
       O52          O  0.6946100  0.4289200  0.0000000    0.00000       Uiso       1.00
       N53          N  0.5947500  0.4069700  0.0000000    0.00000       Uiso       1.00
       C54          C  0.6814300  0.3856100  0.0000000    0.00000       Uiso       1.00
       C55          C  0.5901800  0.3587300  0.0000000    0.00000       Uiso       1.00
       C56          C  0.5612600  0.4269500  0.0000000    0.00000       Uiso       1.00
       C57          C  0.5078600  0.4029800  0.0000000    0.00000       Uiso       1.00
       C58          C  0.4862700  0.4333100  0.0000000    0.00000       Uiso       1.00
       C59          C  0.5127400  0.4848300  0.0000000    0.00000       Uiso       1.00
       C60          C  0.5637600  0.5066000  0.0000000    0.00000       Uiso       1.00
       C61          C  0.5866200  0.4787800  0.0000000    0.00000       Uiso       1.00
       C62          C  0.6280000  0.3485100  0.0000000    0.00000       Uiso       1.00
       H63          H  0.5552200  0.3273000  0.0000000    0.00000       Uiso       1.00
       N64          N  0.4727500  0.3506700  0.0000000    0.00000       Uiso       1.00
       H65          H  0.6306900  0.4348500  0.0000000    0.00000       Uiso       1.00
       H66          H  0.6263200  0.4993200  0.0000000    0.00000       Uiso       1.00
       H67          H  0.4471900  0.4150600  0.0000000    0.00000       Uiso       1.00
       H68          H  0.5880000  0.5456100  0.0000000    0.00000       Uiso       1.00
       O69          O  0.5710800  0.2656900  0.0000000    0.00000       Uiso       1.00
       N70          N  0.5930300  0.1877800  0.0000000    0.00000       Uiso       1.00
       C71          C  0.6143900  0.2958200  0.0000000    0.00000       Uiso       1.00
       C72          C  0.6412700  0.2314500  0.0000000    0.00000       Uiso       1.00
       C73          C  0.5730500  0.1343100  0.0000000    0.00000       Uiso       1.00
       C74          C  0.5970200  0.1048800  0.0000000    0.00000       Uiso       1.00
       C75          C  0.5666900  0.0529600  0.0000000    0.00000       Uiso       1.00
       C76          C  0.5151700  0.0279100  0.0000000    0.00000       Uiso       1.00
       C77          C  0.4934000  0.0571600  0.0000000    0.00000       Uiso       1.00
       C78          C  0.5212200  0.1078400  0.0000000    0.00000       Uiso       1.00
       C79          C  0.6514900  0.2794900  0.0000000    0.00000       Uiso       1.00
       H80          H  0.6727000  0.2279200  0.0000000    0.00000       Uiso       1.00
       N81          N  0.6493300  0.1220800  0.0000000    0.00000       Uiso       1.00
       H82          H  0.5651500  0.1958400  0.0000000    0.00000       Uiso       1.00
       H83          H  0.5006800  0.1270000  0.0000000    0.00000       Uiso       1.00
       H84          H  0.5849400  0.0321300  0.0000000    0.00000       Uiso       1.00
       H85          H  0.4543900  0.0423900  0.0000000    0.00000       Uiso       1.00
       O86          O  0.7343100  0.3053900  0.0000000    0.00000       Uiso       1.00
       N87          N  0.8122200  0.4052500  0.0000000    0.00000       Uiso       1.00
       C88          C  0.7041800  0.3185700  0.0000000    0.00000       Uiso       1.00
       C89          C  0.7685500  0.4098200  0.0000000    0.00000       Uiso       1.00
       C90          C  0.8656900  0.4387400  0.0000000    0.00000       Uiso       1.00
       C91          C  0.8951200  0.4921400  0.0000000    0.00000       Uiso       1.00
       C92          C  0.9470400  0.5137300  0.0000000    0.00000       Uiso       1.00
       C93          C  0.9720900  0.4872600  0.0000000    0.00000       Uiso       1.00
       C94          C  0.9428400  0.4362400  0.0000000    0.00000       Uiso       1.00
       C95          C  0.8921600  0.4133800  0.0000000    0.00000       Uiso       1.00
       C96          C  0.7205100  0.3720000  0.0000000    0.00000       Uiso       1.00
       H97          H  0.7720800  0.4447800  0.0000000    0.00000       Uiso       1.00
       N98          N  0.8779200  0.5272500  0.0000000    0.00000       Uiso       1.00
       H99          H  0.8041600  0.3693100  0.0000000    0.00000       Uiso       1.00
      H100          H  0.8730000  0.3736800  0.0000000    0.00000       Uiso       1.00
      H101          H  0.9678701  0.5528100  0.0000000    0.00000       Uiso       1.00
      H102          H  0.9576100  0.4120000  0.0000000    0.00000       Uiso       1.00
      O103          O  0.5152000  0.6826900  0.0000000    0.00000       Uiso       1.00
      O104          O  0.5740400  0.6647700  0.0000000    0.00000       Uiso       1.00
      O105          O  0.3173100  0.8325100  0.0000000    0.00000       Uiso       1.00
      O106          O  0.3352300  0.9092700  0.0000000    0.00000       Uiso       1.00
      O107          O  0.1674900  0.4848000  0.0000000    0.00000       Uiso       1.00
      O108          O  0.0907300  0.4259600  0.0000000    0.00000       Uiso       1.00
      O109          O  0.4848000  0.3173100  0.0000000    0.00000       Uiso       1.00
      O110          O  0.4259600  0.3352300  0.0000000    0.00000       Uiso       1.00
      O111          O  0.6826900  0.1674900  0.0000000    0.00000       Uiso       1.00
      O112          O  0.6647700  0.0907300  0.0000000    0.00000       Uiso       1.00
      O113          O  0.8325100  0.5152000  0.0000000    0.00000       Uiso       1.00
      O114          O  0.9092700  0.5740400  0.0000000    0.00000       Uiso       1.00
