data_TP-BDDA-COF
_audit_creation_date              0000-00-00
_audit_creation_method            'LanYouShi'
_symmetry_space_group_name_H-M    'P1'
_cell_length_a                    39.0980988
_cell_length_b                    39.0980988
_cell_length_c                    3.5868001
_cell_angle_alpha                 90.0000000
_cell_angle_beta                  90.0000000
_cell_angle_gamma                 120.0000000
loop_
_atom_site_label
_atom_site_type_symbol
_atom_site_fract_x
_atom_site_fract_y
_atom_site_fract_z
_atom_site_U_iso_or_equiv
_atom_site_adp_type
_atom_site_occupancy
       xx1          C  0.3069400  0.6831900  0.0000000    0.00000       Uiso       1.00
       xx2          C  0.3500200  0.7101300  0.0000000    0.00000       Uiso       1.00
       xx3          C  0.3635900  0.7486500  0.0000000    0.00000       Uiso       1.00
       xx4          C  0.6030800  0.4216000  0.0000000    0.00000       Uiso       1.00
       xx5          C  0.6185000  0.4609700  0.1555600    0.00000       Uiso       1.00
       xx6          C  0.5952500  0.4788600  0.1460600    0.00000       Uiso       1.00
       xx7          C  0.5561300  0.4575700  0.0000000    0.00000       Uiso       1.00
       xx8          C  0.5405100  0.4184800 -0.0961100    0.00000       Uiso       1.00
       xx9          C  0.5638300  0.4006300 -0.0904700    0.00000       Uiso       1.00
      xx10          C  0.5320300  0.4758000  0.0000000    0.00000       Uiso       1.00
      xx11          C  0.5118300  0.4910600  0.0000000    0.00000       Uiso       1.00
      xx12          O  0.2860000  0.6966600  0.0000000    0.00000       Uiso       1.00
      xx13          N  0.4042400  0.7762100  0.0000000    0.00000       Uiso       1.00
      xx14          H  0.3424100  0.7586400  0.0000000    0.00000       Uiso       1.00
      xx15          H  0.4216200  0.7654200  0.0000000    0.00000       Uiso       1.00
      xx16          H  0.6486100  0.4778100  0.2552900    0.00000       Uiso       1.00
      xx17          H  0.6076600  0.5091500  0.2384700    0.00000       Uiso       1.00
      xx18          H  0.5103800  0.4018900 -0.1963500    0.00000       Uiso       1.00
      xx19          H  0.5509300  0.3707600 -0.1930900    0.00000       Uiso       1.00
      xx20          C  0.3168100  0.6237500  0.0000000    0.00000       Uiso       1.00
      xx21          C  0.2898700  0.6398900  0.0000000    0.00000       Uiso       1.00
      xx22          C  0.2513500  0.6149400  0.0000000    0.00000       Uiso       1.00
      xx23          C  0.5784000  0.1814800  0.0000000    0.00000       Uiso       1.00
      xx24          C  0.5390300  0.1575300  0.1555600    0.00000       Uiso       1.00
      xx25          C  0.5211400  0.1163900  0.1460600    0.00000       Uiso       1.00
      xx26          C  0.5424300  0.0985600  0.0000000    0.00000       Uiso       1.00
      xx27          C  0.5815200  0.1220300 -0.0961100    0.00000       Uiso       1.00
      xx28          C  0.5993700  0.1632000 -0.0904700    0.00000       Uiso       1.00
      xx29          C  0.5242000  0.0562300  0.0000000    0.00000       Uiso       1.00
      xx30          C  0.5089400  0.0207700  0.0000000    0.00000       Uiso       1.00
      xx31          O  0.3033400  0.5893400  0.0000000    0.00000       Uiso       1.00
      xx32          N  0.2237900  0.6280300  0.0000000    0.00000       Uiso       1.00
      xx33          H  0.2413600  0.5837700  0.0000000    0.00000       Uiso       1.00
      xx34          H  0.2345800  0.6562000  0.0000000    0.00000       Uiso       1.00
      xx35          H  0.5221900  0.1708000  0.2552900    0.00000       Uiso       1.00
      xx36          H  0.4908500  0.0985100  0.2384700    0.00000       Uiso       1.00
      xx37          H  0.5981100  0.1084900 -0.1963500    0.00000       Uiso       1.00
      xx38          H  0.6292400  0.1801700 -0.1930900    0.00000       Uiso       1.00
      xx39          C  0.3762500  0.6930600  0.0000000    0.00000       Uiso       1.00
      xx40          C  0.3601100  0.6499800  0.0000000    0.00000       Uiso       1.00
      xx41          C  0.3850600  0.6364100  0.0000000    0.00000       Uiso       1.00
      xx42          C  0.8185200  0.3969200  0.0000000    0.00000       Uiso       1.00
      xx43          C  0.8424700  0.3815000  0.1555600    0.00000       Uiso       1.00
      xx44          C  0.8836100  0.4047500  0.1460600    0.00000       Uiso       1.00
      xx45          C  0.9014400  0.4438700  0.0000000    0.00000       Uiso       1.00
      xx46          C  0.8779700  0.4594900 -0.0961100    0.00000       Uiso       1.00
      xx47          C  0.8368000  0.4361700 -0.0904700    0.00000       Uiso       1.00
      xx48          C  0.9437700  0.4679700  0.0000000    0.00000       Uiso       1.00
      xx49          C  0.9792300  0.4881700  0.0000000    0.00000       Uiso       1.00
      xx50          O  0.4106600  0.7140000  0.0000000    0.00000       Uiso       1.00
      xx51          N  0.3719700  0.5957600  0.0000000    0.00000       Uiso       1.00
      xx52          H  0.4162300  0.6575900  0.0000000    0.00000       Uiso       1.00
      xx53          H  0.3438000  0.5783800  0.0000000    0.00000       Uiso       1.00
      xx54          H  0.8292000  0.3513900  0.2552900    0.00000       Uiso       1.00
      xx55          H  0.9014900  0.3923400  0.2384700    0.00000       Uiso       1.00
      xx56          H  0.8915100  0.4896200 -0.1963500    0.00000       Uiso       1.00
      xx57          H  0.8198300  0.4490700 -0.1930900    0.00000       Uiso       1.00
      xx58          C  0.6930600  0.3168100  0.0000000    0.00000       Uiso       1.00
      xx59          C  0.6499800  0.2898700  0.0000000    0.00000       Uiso       1.00
      xx60          C  0.6364100  0.2513500  0.0000000    0.00000       Uiso       1.00
      xx61          C  0.3969200  0.5784000  0.0000000    0.00000       Uiso       1.00
      xx62          C  0.3815000  0.5390300  0.1555600    0.00000       Uiso       1.00
      xx63          C  0.4047500  0.5211400  0.1460600    0.00000       Uiso       1.00
      xx64          C  0.4438700  0.5424300  0.0000000    0.00000       Uiso       1.00
      xx65          C  0.4594900  0.5815200 -0.0961100    0.00000       Uiso       1.00
      xx66          C  0.4361700  0.5993700 -0.0904700    0.00000       Uiso       1.00
      xx67          C  0.4679700  0.5242000  0.0000000    0.00000       Uiso       1.00
      xx68          C  0.4881700  0.5089400  0.0000000    0.00000       Uiso       1.00
      xx69          O  0.7140000  0.3033400  0.0000000    0.00000       Uiso       1.00
      xx70          N  0.5957600  0.2237900  0.0000000    0.00000       Uiso       1.00
      xx71          H  0.6575900  0.2413600  0.0000000    0.00000       Uiso       1.00
      xx72          H  0.5783800  0.2345800  0.0000000    0.00000       Uiso       1.00
      xx73          H  0.3513900  0.5221900  0.2552900    0.00000       Uiso       1.00
      xx74          H  0.3923400  0.4908500  0.2384700    0.00000       Uiso       1.00
      xx75          H  0.4896200  0.5981100 -0.1963500    0.00000       Uiso       1.00
      xx76          H  0.4490700  0.6292400 -0.1930900    0.00000       Uiso       1.00
      xx77          C  0.6831900  0.3762500  0.0000000    0.00000       Uiso       1.00
      xx78          C  0.7101300  0.3601100  0.0000000    0.00000       Uiso       1.00
      xx79          C  0.7486500  0.3850600  0.0000000    0.00000       Uiso       1.00
      xx80          C  0.4216000  0.8185200  0.0000000    0.00000       Uiso       1.00
      xx81          C  0.4609700  0.8424700  0.1555600    0.00000       Uiso       1.00
      xx82          C  0.4788600  0.8836100  0.1460600    0.00000       Uiso       1.00
      xx83          C  0.4575700  0.9014400  0.0000000    0.00000       Uiso       1.00
      xx84          C  0.4184800  0.8779700 -0.0961100    0.00000       Uiso       1.00
      xx85          C  0.4006300  0.8368000 -0.0904700    0.00000       Uiso       1.00
      xx86          C  0.4758000  0.9437700  0.0000000    0.00000       Uiso       1.00
      xx87          C  0.4910600  0.9792299  0.0000000    0.00000       Uiso       1.00
      xx88          O  0.6966600  0.4106600  0.0000000    0.00000       Uiso       1.00
      xx89          N  0.7762100  0.3719700  0.0000000    0.00000       Uiso       1.00
      xx90          H  0.7586400  0.4162300  0.0000000    0.00000       Uiso       1.00
      xx91          H  0.7654200  0.3438000  0.0000000    0.00000       Uiso       1.00
      xx92          H  0.4778100  0.8292000  0.2552900    0.00000       Uiso       1.00
      xx93          H  0.5091500  0.9014900  0.2384700    0.00000       Uiso       1.00
      xx94          H  0.4018900  0.8915100 -0.1963500    0.00000       Uiso       1.00
      xx95          H  0.3707600  0.8198300 -0.1930900    0.00000       Uiso       1.00
      xx96          C  0.6237500  0.3069400  0.0000000    0.00000       Uiso       1.00
      xx97          C  0.6398900  0.3500200  0.0000000    0.00000       Uiso       1.00
      xx98          C  0.6149400  0.3635900  0.0000000    0.00000       Uiso       1.00
      xx99          C  0.1814800  0.6030800  0.0000000    0.00000       Uiso       1.00
     xx100          C  0.1575300  0.6185000  0.1555600    0.00000       Uiso       1.00
     xx101          C  0.1163900  0.5952500  0.1460600    0.00000       Uiso       1.00
     xx102          C  0.0985600  0.5561300  0.0000000    0.00000       Uiso       1.00
     xx103          C  0.1220300  0.5405100 -0.0961100    0.00000       Uiso       1.00
     xx104          C  0.1632000  0.5638300 -0.0904700    0.00000       Uiso       1.00
     xx105          C  0.0562300  0.5320300  0.0000000    0.00000       Uiso       1.00
     xx106          C  0.0207700  0.5118300  0.0000000    0.00000       Uiso       1.00
     xx107          O  0.5893400  0.2860000  0.0000000    0.00000       Uiso       1.00
     xx108          N  0.6280300  0.4042400  0.0000000    0.00000       Uiso       1.00
     xx109          H  0.5837700  0.3424100  0.0000000    0.00000       Uiso       1.00
     xx110          H  0.6562000  0.4216200  0.0000000    0.00000       Uiso       1.00
     xx111          H  0.1708000  0.6486100  0.2552900    0.00000       Uiso       1.00
     xx112          H  0.0985100  0.6076600  0.2384700    0.00000       Uiso       1.00
     xx113          H  0.1084900  0.5103800 -0.1963500    0.00000       Uiso       1.00
     xx114          H  0.1801700  0.5509300 -0.1930900    0.00000       Uiso       1.00
