data_TPBD-ME2-2
_audit_creation_date              0000-00-00
_audit_creation_method            'LanYouShi'
_symmetry_space_group_name_H-M    'P1'
_cell_length_a                    29.2800007
_cell_length_b                    29.2800007
_cell_length_c                    3.2500000
_cell_angle_alpha                 90.0000000
_cell_angle_beta                  90.0000000
_cell_angle_gamma                 120.0000000
loop_
_atom_site_label
_atom_site_type_symbol
_atom_site_fract_x
_atom_site_fract_y
_atom_site_fract_z
_atom_site_U_iso_or_equiv
_atom_site_adp_type
_atom_site_occupancy
        H1          H  0.5495500  0.6637500  0.2134500    0.00000       Uiso       1.00
        H2          H  0.3362500  0.8858000  0.2134500    0.00000       Uiso       1.00
        H3          H  0.1142000  0.4504500  0.2134500    0.00000       Uiso       1.00
        H4          H  0.4504500  0.3362500  0.2134500    0.00000       Uiso       1.00
        H5          H  0.6637500  0.1142000  0.2134500    0.00000       Uiso       1.00
        H6          H  0.8858000  0.5495500  0.2134500    0.00000       Uiso       1.00
        H7          H  0.4504500  0.3362500 -0.2134500    0.00000       Uiso       1.00
        H8          H  0.6637500  0.1142000 -0.2134500    0.00000       Uiso       1.00
        H9          H  0.8858000  0.5495500 -0.2134500    0.00000       Uiso       1.00
       H10          H  0.5495500  0.6637500 -0.2134500    0.00000       Uiso       1.00
       H11          H  0.3362500  0.8858000 -0.2134500    0.00000       Uiso       1.00
       H12          H  0.1142000  0.4504500 -0.2134500    0.00000       Uiso       1.00
       O13          O  0.2875500  0.5617900  0.0000000    0.00000       Uiso       1.00
       N14          N  0.3847700  0.5729300  0.0000000    0.00000       Uiso       1.00
       C15          C  0.3092200  0.6097700  0.0000000    0.00000       Uiso       1.00
       C16          C  0.3984600  0.6250400  0.0000000    0.00000       Uiso       1.00
       C17          C  0.4228800  0.5581200  0.0000000    0.00000       Uiso       1.00
       C18          C  0.4797000  0.5923300  0.0000000    0.00000       Uiso       1.00
       C19          C  0.5076700  0.5665900  0.0000000    0.00000       Uiso       1.00
       C20          C  0.4837500  0.5119100  0.0000000    0.00000       Uiso       1.00
       C21          C  0.4289200  0.4808700  0.0000000    0.00000       Uiso       1.00
       C22          C  0.3996400  0.5037900  0.0000000    0.00000       Uiso       1.00
       C23          C  0.3659600  0.6428500  0.0000000    0.00000       Uiso       1.00
       H24          H  0.4373900  0.6518300  0.0000000    0.00000       Uiso       1.00
       C25          C  0.5184700  0.6531100  0.0000000    0.00000       Uiso       1.00
       H26          H  0.3461800  0.5427400  0.0000000    0.00000       Uiso       1.00
       H27          H  0.3571800  0.4779300  0.0000000    0.00000       Uiso       1.00
       H28          H  0.5492500  0.5914900  0.0000000    0.00000       Uiso       1.00
       H29          H  0.4053700  0.4388000  0.0000000    0.00000       Uiso       1.00
       H30          H  0.5119400  0.6869500  0.0000000    0.00000       Uiso       1.00
       O31          O  0.4382100  0.7257600  0.0000000    0.00000       Uiso       1.00
       N32          N  0.4270700  0.8118399  0.0000000    0.00000       Uiso       1.00
       C33          C  0.3902300  0.6994500  0.0000000    0.00000       Uiso       1.00
       C34          C  0.3749600  0.7734200  0.0000000    0.00000       Uiso       1.00
       C35          C  0.4418800  0.8647600  0.0000000    0.00000       Uiso       1.00
       C36          C  0.4076700  0.8873700  0.0000000    0.00000       Uiso       1.00
       C37          C  0.4334100  0.9410800  0.0000000    0.00000       Uiso       1.00
       C38          C  0.4880900  0.9718400  0.0000000    0.00000       Uiso       1.00
       C39          C  0.5191300  0.9480500  0.0000000    0.00000       Uiso       1.00
       C40          C  0.4962100  0.8958501  0.0000000    0.00000       Uiso       1.00
       C41          C  0.3571500  0.7231100  0.0000000    0.00000       Uiso       1.00
       H42          H  0.3481700  0.7855601  0.0000000    0.00000       Uiso       1.00
       C43          C  0.3468900  0.8653600  0.0000000    0.00000       Uiso       1.00
       H44          H  0.4572600  0.8034399  0.0000000    0.00000       Uiso       1.00
       H45          H  0.5220700  0.8792500  0.0000000    0.00000       Uiso       1.00
       H46          H  0.4085100  0.9577600  0.0000000    0.00000       Uiso       1.00
       H47          H  0.5612000  0.9665700  0.0000000    0.00000       Uiso       1.00
       H48          H  0.3130500  0.8249900  0.0000000    0.00000       Uiso       1.00
       O49          O  0.2742400  0.7124500  0.0000000    0.00000       Uiso       1.00
       N50          N  0.1881600  0.6152300  0.0000000    0.00000       Uiso       1.00
       C51          C  0.3005500  0.6907800  0.0000000    0.00000       Uiso       1.00
       C52          C  0.2265800  0.6015400  0.0000000    0.00000       Uiso       1.00
       C53          C  0.1352400  0.5771200  0.0000000    0.00000       Uiso       1.00
       C54          C  0.1126300  0.5203000  0.0000000    0.00000       Uiso       1.00
       C55          C  0.0589200  0.4923300  0.0000000    0.00000       Uiso       1.00
       C56          C  0.0281600  0.5162500  0.0000000    0.00000       Uiso       1.00
       C57          C  0.0519500  0.5710800  0.0000000    0.00000       Uiso       1.00
       C58          C  0.1041500  0.6003600  0.0000000    0.00000       Uiso       1.00
       C59          C  0.2768900  0.6340399  0.0000000    0.00000       Uiso       1.00
       H60          H  0.2144400  0.5626100  0.0000000    0.00000       Uiso       1.00
       C61          C  0.1346400  0.4815300  0.0000000    0.00000       Uiso       1.00
       H62          H  0.1965600  0.6538200  0.0000000    0.00000       Uiso       1.00
       H63          H  0.1207500  0.6428200  0.0000000    0.00000       Uiso       1.00
       H64          H  0.0422400  0.4507500  0.0000000    0.00000       Uiso       1.00
       H65          H  0.0334300  0.5946300  0.0000000    0.00000       Uiso       1.00
       H66          H  0.1750100  0.4880600  0.0000000    0.00000       Uiso       1.00
       O67          O  0.7124500  0.4382100  0.0000000    0.00000       Uiso       1.00
       N68          N  0.6152300  0.4270700  0.0000000    0.00000       Uiso       1.00
       C69          C  0.6907800  0.3902300  0.0000000    0.00000       Uiso       1.00
       C70          C  0.6015400  0.3749600  0.0000000    0.00000       Uiso       1.00
       C71          C  0.5771200  0.4418800  0.0000000    0.00000       Uiso       1.00
       C72          C  0.5203000  0.4076700  0.0000000    0.00000       Uiso       1.00
       C73          C  0.4923300  0.4334100  0.0000000    0.00000       Uiso       1.00
       C74          C  0.5162500  0.4880900  0.0000000    0.00000       Uiso       1.00
       C75          C  0.5710800  0.5191300  0.0000000    0.00000       Uiso       1.00
       C76          C  0.6003600  0.4962100  0.0000000    0.00000       Uiso       1.00
       C77          C  0.6340400  0.3571500  0.0000000    0.00000       Uiso       1.00
       H78          H  0.5626100  0.3481700  0.0000000    0.00000       Uiso       1.00
       C79          C  0.4815300  0.3468900  0.0000000    0.00000       Uiso       1.00
       H80          H  0.6538200  0.4572600  0.0000000    0.00000       Uiso       1.00
       H81          H  0.6428200  0.5220700  0.0000000    0.00000       Uiso       1.00
       H82          H  0.4507500  0.4085100  0.0000000    0.00000       Uiso       1.00
       H83          H  0.5946300  0.5612000  0.0000000    0.00000       Uiso       1.00
       H84          H  0.4880600  0.3130500  0.0000000    0.00000       Uiso       1.00
       O85          O  0.5617900  0.2742400  0.0000000    0.00000       Uiso       1.00
       N86          N  0.5729300  0.1881600  0.0000000    0.00000       Uiso       1.00
       C87          C  0.6097700  0.3005500  0.0000000    0.00000       Uiso       1.00
       C88          C  0.6250400  0.2265800  0.0000000    0.00000       Uiso       1.00
       C89          C  0.5581200  0.1352400  0.0000000    0.00000       Uiso       1.00
       C90          C  0.5923300  0.1126300  0.0000000    0.00000       Uiso       1.00
       C91          C  0.5665900  0.0589200  0.0000000    0.00000       Uiso       1.00
       C92          C  0.5119100  0.0281600  0.0000000    0.00000       Uiso       1.00
       C93          C  0.4808700  0.0519500  0.0000000    0.00000       Uiso       1.00
       C94          C  0.5037900  0.1041500  0.0000000    0.00000       Uiso       1.00
       C95          C  0.6428500  0.2768900  0.0000000    0.00000       Uiso       1.00
       H96          H  0.6518300  0.2144400  0.0000000    0.00000       Uiso       1.00
       C97          C  0.6531100  0.1346400  0.0000000    0.00000       Uiso       1.00
       H98          H  0.5427400  0.1965600  0.0000000    0.00000       Uiso       1.00
       H99          H  0.4779300  0.1207500  0.0000000    0.00000       Uiso       1.00
      H100          H  0.5914900  0.0422400  0.0000000    0.00000       Uiso       1.00
      H101          H  0.4388000  0.0334300  0.0000000    0.00000       Uiso       1.00
      H102          H  0.6869500  0.1750100  0.0000000    0.00000       Uiso       1.00
      O103          O  0.7257600  0.2875500  0.0000000    0.00000       Uiso       1.00
      N104          N  0.8118400  0.3847700  0.0000000    0.00000       Uiso       1.00
      C105          C  0.6994500  0.3092200  0.0000000    0.00000       Uiso       1.00
      C106          C  0.7734200  0.3984600  0.0000000    0.00000       Uiso       1.00
      C107          C  0.8647600  0.4228800  0.0000000    0.00000       Uiso       1.00
      C108          C  0.8873699  0.4797000  0.0000000    0.00000       Uiso       1.00
      C109          C  0.9410800  0.5076700  0.0000000    0.00000       Uiso       1.00
      C110          C  0.9718400  0.4837500  0.0000000    0.00000       Uiso       1.00
      C111          C  0.9480500  0.4289200  0.0000000    0.00000       Uiso       1.00
      C112          C  0.8958500  0.3996400  0.0000000    0.00000       Uiso       1.00
      C113          C  0.7231100  0.3659600  0.0000000    0.00000       Uiso       1.00
      H114          H  0.7855601  0.4373900  0.0000000    0.00000       Uiso       1.00
      C115          C  0.8653600  0.5184700  0.0000000    0.00000       Uiso       1.00
      H116          H  0.8034400  0.3461800  0.0000000    0.00000       Uiso       1.00
      H117          H  0.8792500  0.3571800  0.0000000    0.00000       Uiso       1.00
      H118          H  0.9577600  0.5492500  0.0000000    0.00000       Uiso       1.00
      H119          H  0.9665700  0.4053700  0.0000000    0.00000       Uiso       1.00
      H120          H  0.8249900  0.5119400  0.0000000    0.00000       Uiso       1.00
