data_TpBD-NH2_2
_audit_creation_date              0000-00-00
_audit_creation_method            'LanYouShi'
_symmetry_space_group_name_H-M    'P1'
_cell_length_a                    29.2140007
_cell_length_b                    29.2140007
_cell_length_c                    3.5999999
_cell_angle_alpha                 90.0000000
_cell_angle_beta                  90.0000000
_cell_angle_gamma                 120.0000000
loop_
_atom_site_label
_atom_site_type_symbol
_atom_site_fract_x
_atom_site_fract_y
_atom_site_fract_z
_atom_site_U_iso_or_equiv
_atom_site_adp_type
_atom_site_occupancy
        N1          N  0.4235180 -0.3853220  0.5000000    0.00000       Uiso       1.00
        N2          N  0.3853220 -0.1911610  0.5000000    0.00000       Uiso       1.00
        N3          N  0.1911610 -0.4235180  0.5000000    0.00000       Uiso       1.00
        N4          N  0.5764820 -0.6146780  0.5000000    0.00000       Uiso       1.00
        N5          N  0.6146780 -0.8088391  0.5000000    0.00000       Uiso       1.00
        N6          N  0.8088391 -0.5764820  0.5000000    0.00000       Uiso       1.00
        C7          C  0.3718000 -0.4015460  0.5000000    0.00000       Uiso       1.00
        C8          C  0.4442590 -0.4181460  0.5000000    0.00000       Uiso       1.00
        C9          C  0.4123210 -0.4726290  0.5000000    0.00000       Uiso       1.00
       C10          C  0.4345750 -0.5038570  0.5000000    0.00000       Uiso       1.00
       C11          C  0.4890430 -0.4826230  0.5000000    0.00000       Uiso       1.00
       C12          C  0.5204881 -0.4277310  0.5000000    0.00000       Uiso       1.00
       C13          C  0.4985390 -0.3959010  0.5000000    0.00000       Uiso       1.00
       C14          C  0.4015460 -0.2266540  0.5000000    0.00000       Uiso       1.00
       C15          C  0.4181460 -0.1375960  0.5000000    0.00000       Uiso       1.00
       C16          C  0.4726290 -0.1150500  0.5000000    0.00000       Uiso       1.00
       C17          C  0.5038570 -0.0615670  0.5000000    0.00000       Uiso       1.00
       C18          C  0.4826230 -0.0283340  0.5000000    0.00000       Uiso       1.00
       C19          C  0.4277310 -0.0517820  0.5000000    0.00000       Uiso       1.00
       C20          C  0.3959010 -0.1055600  0.5000000    0.00000       Uiso       1.00
       C21          C  0.2266540 -0.3718000  0.5000000    0.00000       Uiso       1.00
       C22          C  0.1375960 -0.4442590  0.5000000    0.00000       Uiso       1.00
       C23          C  0.1150500 -0.4123210  0.5000000    0.00000       Uiso       1.00
       C24          C  0.0615670 -0.4345750  0.5000000    0.00000       Uiso       1.00
       C25          C  0.0283340 -0.4890430  0.5000000    0.00000       Uiso       1.00
       C26          C  0.0517820 -0.5204870  0.5000000    0.00000       Uiso       1.00
       C27          C  0.1055600 -0.4985390  0.5000000    0.00000       Uiso       1.00
       C28          C  0.6282000 -0.5984540  0.5000000    0.00000       Uiso       1.00
       C29          C  0.5557410 -0.5818540  0.5000000    0.00000       Uiso       1.00
       C30          C  0.5876790 -0.5273710  0.5000000    0.00000       Uiso       1.00
       C31          C  0.5654250 -0.4961430  0.5000000    0.00000       Uiso       1.00
       C32          C  0.5109570 -0.5173770  0.5000000    0.00000       Uiso       1.00
       C33          C  0.4795120 -0.5722690  0.5000000    0.00000       Uiso       1.00
       C34          C  0.5014610 -0.6040990  0.5000000    0.00000       Uiso       1.00
       C35          C  0.5984540 -0.7733460  0.5000000    0.00000       Uiso       1.00
       C36          C  0.5818540 -0.8624040  0.5000000    0.00000       Uiso       1.00
       C37          C  0.5273709 -0.8849500  0.5000000    0.00000       Uiso       1.00
       C38          C  0.4961430 -0.9384329  0.5000000    0.00000       Uiso       1.00
       C39          C  0.5173770 -0.9716660  0.5000000    0.00000       Uiso       1.00
       C40          C  0.5722690 -0.9482180  0.5000000    0.00000       Uiso       1.00
       C41          C  0.6040990 -0.8944399  0.5000000    0.00000       Uiso       1.00
       C42          C  0.7733460 -0.6282000  0.5000000    0.00000       Uiso       1.00
       C43          C  0.8624040 -0.5557410  0.5000000    0.00000       Uiso       1.00
       C44          C  0.8849500 -0.5876790  0.5000000    0.00000       Uiso       1.00
       C45          C  0.9384330 -0.5654250  0.5000000    0.00000       Uiso       1.00
       C46          C  0.9716660 -0.5109570  0.5000000    0.00000       Uiso       1.00
       C47          C  0.9482180 -0.4795120  0.5000000    0.00000       Uiso       1.00
       C48          C  0.8944390 -0.5014610  0.5000000    0.00000       Uiso       1.00
       H49          H  0.3420040 -0.4434480  0.5000000    0.00000       Uiso       1.00
       N50          N  0.3528820 -0.4978700  0.4999630    0.00000       Uiso       1.00
       H51          H  0.4463510 -0.3422270  0.5000000    0.00000       Uiso       1.00
       H52          H  0.5233700 -0.3524260  0.5000000    0.00000       Uiso       1.00
       H53          H  0.4081540 -0.5469090  0.5000000    0.00000       Uiso       1.00
       H54          H  0.5636630 -0.4090840  0.5000000    0.00000       Uiso       1.00
       H55          H  0.3284730 -0.5339000  0.3319430    0.00000       Uiso       1.00
       H56          H  0.3335850 -0.4803860  0.6680330    0.00000       Uiso       1.00
       H57          H  0.4434480 -0.2145480  0.5000000    0.00000       Uiso       1.00
       N58          N  0.4978860 -0.1492330  0.5000130    0.00000       Uiso       1.00
       H59          H  0.3422270 -0.2114210  0.5000000    0.00000       Uiso       1.00
       H60          H  0.3524260 -0.1242030  0.5000000    0.00000       Uiso       1.00
       H61          H  0.5469090 -0.0449360  0.5000000    0.00000       Uiso       1.00
       H62          H  0.4090840 -0.0272530  0.5000000    0.00000       Uiso       1.00
       H63          H  0.4816550 -0.1848840  0.3207680    0.00000       Uiso       1.00
       H64          H  0.5326880 -0.1387150  0.6792670    0.00000       Uiso       1.00
       H65          H  0.2145480 -0.3420040  0.5000000    0.00000       Uiso       1.00
       N66          N  0.1492190 -0.3528810  0.5000320    0.00000       Uiso       1.00
       H67          H  0.2114210 -0.4463510  0.5000000    0.00000       Uiso       1.00
       H68          H  0.1242030 -0.5233700  0.5000000    0.00000       Uiso       1.00
       H69          H  0.0449360 -0.4081540  0.5000000    0.00000       Uiso       1.00
       H70          H  0.0272530 -0.5636630  0.5000000    0.00000       Uiso       1.00
       H71          H  0.1376820 -0.3284930  0.3307840    0.00000       Uiso       1.00
       H72          H  0.1858710 -0.3335620  0.6692350    0.00000       Uiso       1.00
       H73          H  0.6579960 -0.5565520  0.5000000    0.00000       Uiso       1.00
       N74          N  0.6471330 -0.5020960  0.5000180    0.00000       Uiso       1.00
       H75          H  0.5536490 -0.6577730  0.5000000    0.00000       Uiso       1.00
       H76          H  0.4766300 -0.6475730  0.5000000    0.00000       Uiso       1.00
       H77          H  0.5918460 -0.4530910  0.5000000    0.00000       Uiso       1.00
       H78          H  0.4363370 -0.5909160  0.5000000    0.00000       Uiso       1.00
       H79          H  0.6664400 -0.5195510  0.6680570    0.00000       Uiso       1.00
       H80          H  0.6715301 -0.4660540  0.3319610    0.00000       Uiso       1.00
       H81          H  0.5565520 -0.7854520  0.5000000    0.00000       Uiso       1.00
       N82          N  0.5021180 -0.8507640  0.5000270    0.00000       Uiso       1.00
       H83          H  0.6577730 -0.7885779  0.5000000    0.00000       Uiso       1.00
       H84          H  0.6475730 -0.8757970  0.5000000    0.00000       Uiso       1.00
       H85          H  0.4530910 -0.9550640  0.5000000    0.00000       Uiso       1.00
       H86          H  0.5909159 -0.9727470  0.5000000    0.00000       Uiso       1.00
       H87          H  0.4673150 -0.8612779  0.3207850    0.00000       Uiso       1.00
       H88          H  0.5183520 -0.8151140  0.6792850    0.00000       Uiso       1.00
       H89          H  0.7854521 -0.6579960  0.5000000    0.00000       Uiso       1.00
       N90          N  0.8507519 -0.6471190  0.5000330    0.00000       Uiso       1.00
       H91          H  0.7885790 -0.5536490  0.5000000    0.00000       Uiso       1.00
       H92          H  0.8757970 -0.4766300  0.5000000    0.00000       Uiso       1.00
       H93          H  0.9550639 -0.5918460  0.5000000    0.00000       Uiso       1.00
       H94          H  0.9727471 -0.4363370  0.5000000    0.00000       Uiso       1.00
       H95          H  0.8140919 -0.6664250  0.3308200    0.00000       Uiso       1.00
       H96          H  0.8622670 -0.6715160  0.6692650    0.00000       Uiso       1.00
       C97          C  0.6117800 -0.6879700  0.5000000    0.00000       Uiso       1.00
       C98          C  0.6448870 -0.6322750  0.5000000    0.00000       Uiso       1.00
       C99          C  0.6879700 -0.7002501  0.5000000    0.00000       Uiso       1.00
      C100          C  0.6322749 -0.7228380  0.5000000    0.00000       Uiso       1.00
      C101          C  0.7002500 -0.6117800  0.5000000    0.00000       Uiso       1.00
      C102          C  0.7228380 -0.6448870  0.5000000    0.00000       Uiso       1.00
      C103          C  0.3882200 -0.3120300  0.5000000    0.00000       Uiso       1.00
      C104          C  0.3551130 -0.3677250  0.5000000    0.00000       Uiso       1.00
      C105          C  0.3120300 -0.2997500  0.5000000    0.00000       Uiso       1.00
      C106          C  0.3677250 -0.2771620  0.5000000    0.00000       Uiso       1.00
      C107          C  0.2997500 -0.3882200  0.5000000    0.00000       Uiso       1.00
      C108          C  0.2771620 -0.3551130  0.5000000    0.00000       Uiso       1.00
      O109          O  0.5664080 -0.7063490  0.5000000    0.00000       Uiso       1.00
      O110          O  0.7063490 -0.7272420  0.5000000    0.00000       Uiso       1.00
      O111          O  0.7272419 -0.5664080  0.5000000    0.00000       Uiso       1.00
      O112          O  0.4335920 -0.2936510  0.5000000    0.00000       Uiso       1.00
      O113          O  0.2936510 -0.2727580  0.5000000    0.00000       Uiso       1.00
      O114          O  0.2727580 -0.4335920  0.5000000    0.00000       Uiso       1.00
