data_TPB-TP-COF-oxidation
_audit_creation_date              0000-00-00
_audit_creation_method            'LanYouShi'
_symmetry_space_group_name_H-M    'P1'
_cell_length_a                    37.5646019
_cell_length_b                    37.5646019
_cell_length_c                    3.6163001
_cell_angle_alpha                 90.0000000
_cell_angle_beta                  90.0000000
_cell_angle_gamma                 120.0000000
loop_
_atom_site_label
_atom_site_type_symbol
_atom_site_fract_x
_atom_site_fract_y
_atom_site_fract_z
_atom_site_U_iso_or_equiv
_atom_site_adp_type
_atom_site_occupancy
        C1          C  0.8869080  0.4758630  0.5000050    0.00000       Uiso       1.00
        C2          C  0.5241390  0.4110450  0.5000050    0.00000       Uiso       1.00
        C3          C  0.5889560  0.1130930  0.5000050    0.00000       Uiso       1.00
        C4          C  0.1130930  0.5241390  0.5000050    0.00000       Uiso       1.00
        C5          C  0.4758630  0.5889560  0.5000050    0.00000       Uiso       1.00
        C6          C  0.4110450  0.8869080  0.5000050    0.00000       Uiso       1.00
        N7          N  0.9144190  0.4623280  0.5000050    0.00000       Uiso       1.00
        H8          H  0.9022650  0.4327700  0.5000050    0.00000       Uiso       1.00
        N9          N  0.5376730  0.4520910  0.5000050    0.00000       Uiso       1.00
       H10          H  0.5672310  0.4694950  0.5000050    0.00000       Uiso       1.00
       N11          N  0.5479100  0.0855820  0.5000050    0.00000       Uiso       1.00
       H12          H  0.5305060  0.0977360  0.5000050    0.00000       Uiso       1.00
       N13          N  0.0855820  0.5376730  0.5000050    0.00000       Uiso       1.00
       H14          H  0.0977360  0.5672310  0.5000050    0.00000       Uiso       1.00
       N15          N  0.4623280  0.5479100  0.5000050    0.00000       Uiso       1.00
       H16          H  0.4327700  0.5305060  0.5000050    0.00000       Uiso       1.00
       N17          N  0.4520910  0.9144190  0.5000050    0.00000       Uiso       1.00
       H18          H  0.4694950  0.9022650  0.5000050    0.00000       Uiso       1.00
       C19          C  0.9562490  0.4826990  0.5000050    0.00000       Uiso       1.00
       C20          C  0.5173020  0.4735500  0.5000050    0.00000       Uiso       1.00
       C21          C  0.5264510  0.0437520  0.5000050    0.00000       Uiso       1.00
       C22          C  0.0437520  0.5173020  0.5000050    0.00000       Uiso       1.00
       C23          C  0.4826990  0.5264510  0.5000050    0.00000       Uiso       1.00
       C24          C  0.4735500  0.9562490  0.5000050    0.00000       Uiso       1.00
       C25          C  0.9741350  0.4573950  0.5000050    0.00000       Uiso       1.00
       C26          C  0.5426060  0.5167390  0.5000050    0.00000       Uiso       1.00
       C27          C  0.4832620  0.0258670  0.5000050    0.00000       Uiso       1.00
       C28          C  0.0258670  0.5426060  0.5000050    0.00000       Uiso       1.00
       C29          C  0.4573950  0.4832620  0.5000050    0.00000       Uiso       1.00
       C30          C  0.5167390  0.9741350  0.5000050    0.00000       Uiso       1.00
       C31          C  0.0170250  0.4742180  0.5000050    0.00000       Uiso       1.00
       C32          C  0.5257830  0.5428080  0.5000050    0.00000       Uiso       1.00
       C33          C  0.4571930  0.9829760  0.5000050    0.00000       Uiso       1.00
       C34          C  0.9829760  0.5257830  0.5000050    0.00000       Uiso       1.00
       C35          C  0.4742180  0.4571930  0.5000050    0.00000       Uiso       1.00
       C36          C  0.5428080  0.0170250  0.5000050    0.00000       Uiso       1.00
       O37          O  0.8991750  0.5136270  0.5000050    0.00000       Uiso       1.00
       O38          O  0.4863740  0.3855480  0.5000050    0.00000       Uiso       1.00
       O39          O  0.6144540  0.1008270  0.5000050    0.00000       Uiso       1.00
       O40          O  0.1008270  0.4863740  0.5000050    0.00000       Uiso       1.00
       O41          O  0.5136270  0.6144540  0.5000050    0.00000       Uiso       1.00
       O42          O  0.3855480  0.8991750  0.5000050    0.00000       Uiso       1.00
       H43          H  0.9558840  0.4260460  0.5000050    0.00000       Uiso       1.00
       H44          H  0.5739550  0.5298380  0.5000050    0.00000       Uiso       1.00
       H45          H  0.4701640  0.0441170  0.5000050    0.00000       Uiso       1.00
       H46          H  0.0441170  0.5739550  0.5000050    0.00000       Uiso       1.00
       H47          H  0.4260460  0.4701630  0.5000050    0.00000       Uiso       1.00
       H48          H  0.5298380  0.9558840  0.5000050    0.00000       Uiso       1.00
       H49          H  0.0278840  0.4542460  0.5000050    0.00000       Uiso       1.00
       H50          H  0.5457560  0.5736390  0.5000050    0.00000       Uiso       1.00
       H51          H  0.4263620  0.9721180  0.5000050    0.00000       Uiso       1.00
       H52          H  0.9721180  0.5457560  0.5000050    0.00000       Uiso       1.00
       H53          H  0.4542460  0.4263620  0.5000050    0.00000       Uiso       1.00
       H54          H  0.5736390  0.0278840  0.5000050    0.00000       Uiso       1.00
       C55          C  0.1726600  0.5952770  0.5000050    0.00000       Uiso       1.00
       C56          C  0.2153460  0.6226500  0.5000050    0.00000       Uiso       1.00
       C57          C  0.4047240  0.5773840  0.5000050    0.00000       Uiso       1.00
       C58          C  0.3773520  0.5926980  0.5000050    0.00000       Uiso       1.00
       C59          C  0.4226180  0.8273410  0.5000050    0.00000       Uiso       1.00
       C60          C  0.4073040  0.7846550  0.5000050    0.00000       Uiso       1.00
       C61          C  0.8273410  0.4047240  0.5000050    0.00000       Uiso       1.00
       C62          C  0.7846550  0.3773520  0.5000050    0.00000       Uiso       1.00
       C63          C  0.5952770  0.4226180  0.5000050    0.00000       Uiso       1.00
       C64          C  0.6226500  0.4073040  0.5000050    0.00000       Uiso       1.00
       C65          C  0.5773840  0.1726600  0.5000050    0.00000       Uiso       1.00
       C66          C  0.5926980  0.2153460  0.5000050    0.00000       Uiso       1.00
       H67          H  0.1539750  0.6077390  0.5000050    0.00000       Uiso       1.00
       H68          H  0.2234710  0.6527550  0.5000050    0.00000       Uiso       1.00
       H69          H  0.3922620  0.5462380  0.5000050    0.00000       Uiso       1.00
       H70          H  0.3472460  0.5707170  0.5000050    0.00000       Uiso       1.00
       H71          H  0.4537640  0.8460260  0.5000050    0.00000       Uiso       1.00
       H72          H  0.4292840  0.7765300  0.5000050    0.00000       Uiso       1.00
       H73          H  0.8460260  0.3922620  0.5000050    0.00000       Uiso       1.00
       H74          H  0.7765300  0.3472460  0.5000050    0.00000       Uiso       1.00
       H75          H  0.6077390  0.4537640  0.5000050    0.00000       Uiso       1.00
       H76          H  0.6527550  0.4292840  0.5000050    0.00000       Uiso       1.00
       H77          H  0.5462380  0.1539750  0.5000050    0.00000       Uiso       1.00
       H78          H  0.5707170  0.2234710  0.5000050    0.00000       Uiso       1.00
       C79          C  0.3535840  0.8151850  0.5000050    0.00000       Uiso       1.00
       C80          C  0.3385700  0.7725340  0.5000050    0.00000       Uiso       1.00
       C81          C  0.1848160  0.5384000  0.5000050    0.00000       Uiso       1.00
       C82          C  0.2274670  0.5660370  0.5000050    0.00000       Uiso       1.00
       C83          C  0.4616010  0.6464170  0.5000050    0.00000       Uiso       1.00
       C84          C  0.4339640  0.6614310  0.5000050    0.00000       Uiso       1.00
       C85          C  0.6464170  0.1848160  0.5000050    0.00000       Uiso       1.00
       C86          C  0.6614310  0.2274670  0.5000050    0.00000       Uiso       1.00
       C87          C  0.8151850  0.4616010  0.5000050    0.00000       Uiso       1.00
       C88          C  0.7725340  0.4339640  0.5000050    0.00000       Uiso       1.00
       C89          C  0.5384000  0.3535840  0.5000050    0.00000       Uiso       1.00
       C90          C  0.5660370  0.3385700  0.5000050    0.00000       Uiso       1.00
       H91          H  0.3326350  0.8249830  0.5000050    0.00000       Uiso       1.00
       H92          H  0.3075010  0.7550380  0.5000050    0.00000       Uiso       1.00
       H93          H  0.1750180  0.5076530  0.5000050    0.00000       Uiso       1.00
       H94          H  0.2449630  0.5524650  0.5000050    0.00000       Uiso       1.00
       H95          H  0.4923480  0.6673660  0.5000050    0.00000       Uiso       1.00
       H96          H  0.4475370  0.6925000  0.5000050    0.00000       Uiso       1.00
       H97          H  0.6673660  0.1750180  0.5000050    0.00000       Uiso       1.00
       H98          H  0.6925000  0.2449630  0.5000050    0.00000       Uiso       1.00
       H99          H  0.8249830  0.4923480  0.5000050    0.00000       Uiso       1.00
      H100          H  0.7550380  0.4475370  0.5000050    0.00000       Uiso       1.00
      H101          H  0.5076530  0.3326350  0.5000050    0.00000       Uiso       1.00
      H102          H  0.5524650  0.3075010  0.5000050    0.00000       Uiso       1.00
      C103          C  0.3490170  0.7109930  0.5000050    0.00000       Uiso       1.00
      C104          C  0.2890080  0.6380250  0.5000050    0.00000       Uiso       1.00
      C105          C  0.3619760  0.6509850  0.5000050    0.00000       Uiso       1.00
      C106          C  0.3961590  0.8439410  0.5000050    0.00000       Uiso       1.00
      C107          C  0.1560600  0.5522200  0.5000050    0.00000       Uiso       1.00
      C108          C  0.4477810  0.6038420  0.5000050    0.00000       Uiso       1.00
      C109          C  0.3645290  0.7548810  0.5000050    0.00000       Uiso       1.00
      C110          C  0.2451200  0.6096490  0.5000050    0.00000       Uiso       1.00
      C111          C  0.3903520  0.6354720  0.5000050    0.00000       Uiso       1.00
      C112          C  0.3750130  0.6935950  0.5000050    0.00000       Uiso       1.00
      C113          C  0.3064060  0.6814200  0.5000050    0.00000       Uiso       1.00
      C114          C  0.3185820  0.6249880  0.5000050    0.00000       Uiso       1.00
      C115          C  0.6509850  0.2890080  0.5000050    0.00000       Uiso       1.00
      C116          C  0.7109930  0.3619760  0.5000050    0.00000       Uiso       1.00
      C117          C  0.6380250  0.3490170  0.5000050    0.00000       Uiso       1.00
      C118          C  0.6038420  0.1560600  0.5000050    0.00000       Uiso       1.00
      C119          C  0.8439410  0.4477810  0.5000050    0.00000       Uiso       1.00
      C120          C  0.5522200  0.3961590  0.5000050    0.00000       Uiso       1.00
      C121          C  0.6354720  0.2451200  0.5000050    0.00000       Uiso       1.00
      C122          C  0.7548810  0.3903520  0.5000050    0.00000       Uiso       1.00
      C123          C  0.6096490  0.3645290  0.5000050    0.00000       Uiso       1.00
      C124          C  0.6249880  0.3064060  0.5000050    0.00000       Uiso       1.00
      C125          C  0.6935950  0.3185820  0.5000050    0.00000       Uiso       1.00
      C126          C  0.6814190  0.3750130  0.5000050    0.00000       Uiso       1.00
      H127          H  0.2868670  0.6921580  0.5000050    0.00000       Uiso       1.00
      H128          H  0.3078430  0.5947100  0.5000050    0.00000       Uiso       1.00
      H129          H  0.4052910  0.7131350  0.5000050    0.00000       Uiso       1.00
      H130          H  0.7131350  0.3078430  0.5000050    0.00000       Uiso       1.00
      H131          H  0.6921580  0.4052910  0.5000050    0.00000       Uiso       1.00
      H132          H  0.5947100  0.2868670  0.5000050    0.00000       Uiso       1.00
