data_BLP-2H-AA
_audit_creation_date              0000-00-00
_audit_creation_method            'LanYouShi'
_symmetry_space_group_name_H-M    'P1'
_cell_length_a                    15.2904997
_cell_length_b                    15.2904997
_cell_length_c                    3.4579000
_cell_angle_alpha                 90.0000000
_cell_angle_beta                  90.0000000
_cell_angle_gamma                 120.0000000
loop_
_atom_site_label
_atom_site_type_symbol
_atom_site_fract_x
_atom_site_fract_y
_atom_site_fract_z
_atom_site_U_iso_or_equiv
_atom_site_adp_type
_atom_site_occupancy
        B1          B  0.4404000  0.7202000  0.0000000    0.00000       Uiso       1.00
        H2          H  0.5272000  0.7636000  0.0000000    0.00000       Uiso       1.00
        B3          B  0.2798000  0.7202000  0.0000000    0.00000       Uiso       1.00
        H4          H  0.2364000  0.7636000  0.0000000    0.00000       Uiso       1.00
        B5          B  0.2798000  0.5596000  0.0000000    0.00000       Uiso       1.00
        H6          H  0.2364000  0.4728000  0.0000000    0.00000       Uiso       1.00
        C7          C  0.5617000  0.2808500  0.0000000    0.00000       Uiso       1.00
        C8          C  0.7191500  0.2808500  0.0000000    0.00000       Uiso       1.00
        C9          C  0.7191500  0.4383000  0.0000000    0.00000       Uiso       1.00
       C10          C  0.6126000  0.2252000  0.0000000    0.00000       Uiso       1.00
       H11          H  0.7591000  0.5182000  0.0000000    0.00000       Uiso       1.00
       C12          C  0.7748000  0.3874000  0.0000000    0.00000       Uiso       1.00
       H13          H  0.4818000  0.2409000  0.0000000    0.00000       Uiso       1.00
       C14          C  0.6126000  0.3874000  0.0000000    0.00000       Uiso       1.00
       H15          H  0.7591000  0.2409000  0.0000000    0.00000       Uiso       1.00
       C16          C  0.5523000  0.6044000  0.0000000    0.00000       Uiso       1.00
       C17          C  0.6049000  0.5515000  0.0000000    0.00000       Uiso       1.00
       H18          H  0.4019000  0.3143000  0.0000000    0.00000       Uiso       1.00
       H19          H  0.3151000  0.3999000  0.0000000    0.00000       Uiso       1.00
       C20          C  0.3956000  0.9479001  0.0000000    0.00000       Uiso       1.00
       C21          C  0.4485000  0.0534000  0.0000000    0.00000       Uiso       1.00
       H22          H  0.6857000  0.0876000  0.0000000    0.00000       Uiso       1.00
       H23          H  0.6001000  0.9151999  0.0000000    0.00000       Uiso       1.00
       C24          C  0.0521000  0.4477000  0.0000000    0.00000       Uiso       1.00
       C25          C  0.9466000  0.3951000  0.0000000    0.00000       Uiso       1.00
       H26          H  0.9124001  0.5981000  0.0000000    0.00000       Uiso       1.00
       H27          H  0.0848000  0.6849000  0.0000000    0.00000       Uiso       1.00
       C28          C  0.3956000  0.4477000  0.0000000    0.00000       Uiso       1.00
       C29          C  0.4485000  0.3951000  0.0000000    0.00000       Uiso       1.00
       H30          H  0.6857000  0.5981000  0.0000000    0.00000       Uiso       1.00
       H31          H  0.6001000  0.6849000  0.0000000    0.00000       Uiso       1.00
       C32          C  0.0521000  0.6044000  0.0000000    0.00000       Uiso       1.00
       C33          C  0.9466000  0.5515000  0.0000000    0.00000       Uiso       1.00
       H34          H  0.9124000  0.3143000  0.0000000    0.00000       Uiso       1.00
       H35          H  0.0848000  0.3999000  0.0000000    0.00000       Uiso       1.00
       C36          C  0.5523000  0.9479001  0.0000000    0.00000       Uiso       1.00
       C37          C  0.6049000  0.0534000  0.0000000    0.00000       Uiso       1.00
       H38          H  0.4019000  0.0876000  0.0000000    0.00000       Uiso       1.00
       H39          H  0.3151000  0.9151999  0.0000000    0.00000       Uiso       1.00
       C40          C  0.5549000  0.4451000  0.0000000    0.00000       Uiso       1.00
       C41          C  0.4451000  0.5549000  0.0000000    0.00000       Uiso       1.00
       C42          C  0.5549000  0.1098000  0.0000000    0.00000       Uiso       1.00
       C43          C  0.4451000  0.8902000  0.0000000    0.00000       Uiso       1.00
       C44          C  0.8902000  0.4451000  0.0000000    0.00000       Uiso       1.00
       C45          C  0.1098000  0.5549000  0.0000000    0.00000       Uiso       1.00
       N46          N  0.3890000  0.7780000  0.0000000    0.00000       Uiso       1.00
       N47          N  0.2220000  0.6110000  0.0000000    0.00000       Uiso       1.00
       N48          N  0.3890000  0.6110000  0.0000000    0.00000       Uiso       1.00
