data_Tp-DANT-COF
_audit_creation_date              0000-00-00
_audit_creation_method            'LanYouShi'
_symmetry_space_group_name_H-M    'P1'
_cell_length_a                    30.1142006
_cell_length_b                    30.1142006
_cell_length_c                    3.4583001
_cell_angle_alpha                 90.0000000
_cell_angle_beta                  90.0000000
_cell_angle_gamma                 120.0000000
loop_
_atom_site_label
_atom_site_type_symbol
_atom_site_fract_x
_atom_site_fract_y
_atom_site_fract_z
_atom_site_U_iso_or_equiv
_atom_site_adp_type
_atom_site_occupancy
        O1          O  0.3024030  0.5670080  0.0000000    0.00000       Uiso       1.00
        O2          O  0.4329910  0.7353940  0.0000000    0.00000       Uiso       1.00
        O3          O  0.2646050  0.6975960  0.0000000    0.00000       Uiso       1.00
        O4          O  0.6975950  0.4329910  0.0000000    0.00000       Uiso       1.00
        O5          O  0.5670080  0.2646050  0.0000000    0.00000       Uiso       1.00
        O6          O  0.7353940  0.3024030  0.0000000    0.00000       Uiso       1.00
        N7          N  0.4008780  0.5871960  0.0000000    0.00000       Uiso       1.00
        N8          N  0.4128030  0.8136810  0.0000000    0.00000       Uiso       1.00
        N9          N  0.1863170  0.5991200  0.0000000    0.00000       Uiso       1.00
       N10          N  0.5991200  0.4128030  0.0000000    0.00000       Uiso       1.00
       N11          N  0.5871960  0.1863170  0.0000000    0.00000       Uiso       1.00
       N12          N  0.8136810  0.4008780  0.0000000    0.00000       Uiso       1.00
       C13          C  0.3173610  0.6141170  0.0000000    0.00000       Uiso       1.00
       C14          C  0.3858820  0.7032431  0.0000000    0.00000       Uiso       1.00
       C15          C  0.2967560  0.6826370  0.0000000    0.00000       Uiso       1.00
       C16          C  0.6826370  0.3858820  0.0000000    0.00000       Uiso       1.00
       C17          C  0.6141170  0.2967560  0.0000000    0.00000       Uiso       1.00
       C18          C  0.7032430  0.3173610  0.0000000    0.00000       Uiso       1.00
       C19          C  0.4096660  0.6360410  0.0000000    0.00000       Uiso       1.00
       C20          C  0.3639580  0.7736230  0.0000000    0.00000       Uiso       1.00
       C21          C  0.2263750  0.5903330  0.0000000    0.00000       Uiso       1.00
       C22          C  0.5903330  0.3639580  0.0000000    0.00000       Uiso       1.00
       C23          C  0.6360410  0.2263750  0.0000000    0.00000       Uiso       1.00
       C24          C  0.7736230  0.4096660  0.0000000    0.00000       Uiso       1.00
       N25          N  0.4310550  0.5669290  0.0000000    0.00000       Uiso       1.00
       N26          N  0.4330700  0.8641250  0.0000000    0.00000       Uiso       1.00
       N27          N  0.1358730  0.5689430  0.0000000    0.00000       Uiso       1.00
       N28          N  0.5689430  0.4330700  0.0000000    0.00000       Uiso       1.00
       N29          N  0.5669290  0.1358730  0.0000000    0.00000       Uiso       1.00
       N30          N  0.8641250  0.4310550  0.0000000    0.00000       Uiso       1.00
       C31          C  0.4839300  0.5935380  0.0000000    0.00000       Uiso       1.00
       C32          C  0.4064600  0.8903900  0.0000000    0.00000       Uiso       1.00
       C33          C  0.1096080  0.5160690  0.0000000    0.00000       Uiso       1.00
       C34          C  0.5160690  0.4064600  0.0000000    0.00000       Uiso       1.00
       C35          C  0.5935380  0.1096080  0.0000000    0.00000       Uiso       1.00
       C36          C  0.8903900  0.4839300  0.0000000    0.00000       Uiso       1.00
       C37          C  0.5126260  0.5678720  0.0000000    0.00000       Uiso       1.00
       C38          C  0.4321260  0.9447530  0.0000000    0.00000       Uiso       1.00
       C39          C  0.0552460  0.4873720  0.0000000    0.00000       Uiso       1.00
       C40          C  0.4873720  0.4321260  0.0000000    0.00000       Uiso       1.00
       C41          C  0.5678720  0.0552460  0.0000000    0.00000       Uiso       1.00
       C42          C  0.9447531  0.5126260  0.0000000    0.00000       Uiso       1.00
       C43          C  0.4861340  0.5135030  0.0000000    0.00000       Uiso       1.00
       C44          C  0.4864950  0.9726290  0.0000000    0.00000       Uiso       1.00
       C45          C  0.0273690  0.5138640  0.0000000    0.00000       Uiso       1.00
       C46          C  0.5138640  0.4864950  0.0000000    0.00000       Uiso       1.00
       C47          C  0.5135030  0.0273690  0.0000000    0.00000       Uiso       1.00
       C48          C  0.9726290  0.4861340  0.0000000    0.00000       Uiso       1.00
       C49          C  0.4317950  0.4861690  0.0000000    0.00000       Uiso       1.00
       C50          C  0.5138290  0.9456240  0.0000000    0.00000       Uiso       1.00
       C51          C  0.0543750  0.5682040  0.0000000    0.00000       Uiso       1.00
       C52          C  0.5682040  0.5138290  0.0000000    0.00000       Uiso       1.00
       C53          C  0.4861690  0.0543750  0.0000000    0.00000       Uiso       1.00
       C54          C  0.9456240  0.4317950  0.0000000    0.00000       Uiso       1.00
       C55          C  0.4054090  0.5140930  0.0000000    0.00000       Uiso       1.00
       C56          C  0.4859050  0.8913140  0.0000000    0.00000       Uiso       1.00
       C57          C  0.1086850  0.5945900  0.0000000    0.00000       Uiso       1.00
       C58          C  0.5945900  0.4859050  0.0000000    0.00000       Uiso       1.00
       C59          C  0.5140930  0.1086850  0.0000000    0.00000       Uiso       1.00
       C60          C  0.8913140  0.4054090  0.0000000    0.00000       Uiso       1.00
       C61          C  0.3709220  0.6502380  0.0000000    0.00000       Uiso       1.00
       C62          C  0.3497600  0.7206821  0.0000000    0.00000       Uiso       1.00
       C63          C  0.2793160  0.6290760  0.0000000    0.00000       Uiso       1.00
       C64          C  0.6290760  0.3497600  0.0000000    0.00000       Uiso       1.00
       C65          C  0.6502380  0.2793160  0.0000000    0.00000       Uiso       1.00
       C66          C  0.7206821  0.3709220  0.0000000    0.00000       Uiso       1.00
       H67          H  0.4466860  0.6647270  0.0000000    0.00000       Uiso       1.00
       H68          H  0.3352710  0.7819569  0.0000000    0.00000       Uiso       1.00
       H69          H  0.2180410  0.5533130  0.0000000    0.00000       Uiso       1.00
       H70          H  0.5533130  0.3352710  0.0000000    0.00000       Uiso       1.00
       H71          H  0.6647270  0.2180410  0.0000000    0.00000       Uiso       1.00
       H72          H  0.7819569  0.4466860  0.0000000    0.00000       Uiso       1.00
       O73          O  0.5089130  0.6415560  0.0000000    0.00000       Uiso       1.00
       O74          O  0.3584430  0.8673560  0.0000000    0.00000       Uiso       1.00
       O75          O  0.1326430  0.4910850  0.0000000    0.00000       Uiso       1.00
       O76          O  0.4910850  0.3584430  0.0000000    0.00000       Uiso       1.00
       O77          O  0.6415560  0.1326430  0.0000000    0.00000       Uiso       1.00
       O78          O  0.8673560  0.5089130  0.0000000    0.00000       Uiso       1.00
       H79          H  0.3650250  0.5623640  0.0000000    0.00000       Uiso       1.00
       H80          H  0.4376350  0.8026600  0.0000000    0.00000       Uiso       1.00
       H81          H  0.1973390  0.6349740  0.0000000    0.00000       Uiso       1.00
       H82          H  0.6349740  0.4376350  0.0000000    0.00000       Uiso       1.00
       H83          H  0.5623640  0.1973390  0.0000000    0.00000       Uiso       1.00
       H84          H  0.8026600  0.3650250  0.0000000    0.00000       Uiso       1.00
       O85          O  0.3571670  0.4888510  0.0000000    0.00000       Uiso       1.00
       O86          O  0.5111480  0.8683149  0.0000000    0.00000       Uiso       1.00
       O87          O  0.1316830  0.6428310  0.0000000    0.00000       Uiso       1.00
       O88          O  0.6428310  0.5111470  0.0000000    0.00000       Uiso       1.00
       O89          O  0.4888510  0.1316840  0.0000000    0.00000       Uiso       1.00
       O90          O  0.8683150  0.3571680  0.0000000    0.00000       Uiso       1.00
       C91          C  0.9723630  0.5668550  0.0000000    0.00000       Uiso       1.00
       C92          C  0.0260980  0.5941060  0.0000000    0.00000       Uiso       1.00
       H93          H  0.9536820  0.5873840  0.0000000    0.00000       Uiso       1.00
       H94          H  0.0442770  0.6332990  0.0000000    0.00000       Uiso       1.00
       C95          C  0.4331440  0.4055080  0.0000000    0.00000       Uiso       1.00
       C96          C  0.4058920  0.4319910  0.0000000    0.00000       Uiso       1.00
       H97          H  0.4126140  0.3662980  0.0000000    0.00000       Uiso       1.00
       H98          H  0.3667000  0.4109770  0.0000000    0.00000       Uiso       1.00
       C99          C  0.5944900  0.0276350  0.0000000    0.00000       Uiso       1.00
      C100          C  0.5680080  0.9739001  0.0000000    0.00000       Uiso       1.00
      H101          H  0.6337010  0.0463170  0.0000000    0.00000       Uiso       1.00
      H102          H  0.5890220  0.9557210  0.0000000    0.00000       Uiso       1.00
      C103          C  0.0276350  0.4331440  0.0000000    0.00000       Uiso       1.00
      C104          C  0.9739000  0.4058920  0.0000000    0.00000       Uiso       1.00
      H105          H  0.0463170  0.4126140  0.0000000    0.00000       Uiso       1.00
      H106          H  0.9557220  0.3667000  0.0000000    0.00000       Uiso       1.00
      C107          C  0.5668550  0.5944900  0.0000000    0.00000       Uiso       1.00
      C108          C  0.5941060  0.5680080  0.0000000    0.00000       Uiso       1.00
      H109          H  0.5873840  0.6337010  0.0000000    0.00000       Uiso       1.00
      H110          H  0.6332990  0.5890220  0.0000000    0.00000       Uiso       1.00
      C111          C  0.4055080  0.9723629  0.0000000    0.00000       Uiso       1.00
      C112          C  0.4319910  0.0260980  0.0000000    0.00000       Uiso       1.00
      H113          H  0.3662980  0.9536819  0.0000000    0.00000       Uiso       1.00
      H114          H  0.4109770  0.0442770  0.0000000    0.00000       Uiso       1.00
