data_TPE-COF_I
_audit_creation_date              0000-00-00
_audit_creation_method            'LanYouShi'
_symmetry_space_group_name_H-M    'P1'
_cell_length_a                    20.4043007
_cell_length_b                    15.7013998
_cell_length_c                    5.1963000
_cell_angle_alpha                 90.0000000
_cell_angle_beta                  86.5000000
_cell_angle_gamma                 90.0000000
loop_
_atom_site_label
_atom_site_type_symbol
_atom_site_fract_x
_atom_site_fract_y
_atom_site_fract_z
_atom_site_U_iso_or_equiv
_atom_site_adp_type
_atom_site_occupancy
       xx1          C  0.3396500  0.8554500  0.9983800    0.00000       Uiso       1.00
       xx2          C  0.3942000  0.9057600  0.9273700    0.00000       Uiso       1.00
       xx3          C  0.4492500  0.8536200  0.2945800    0.00000       Uiso       1.00
       xx4          C  0.3948400  0.8028700  0.3653400    0.00000       Uiso       1.00
       xx5          C  0.3395500  0.8039000  0.2192600    0.00000       Uiso       1.00
       xx6          N  0.2842000  0.2479200  0.2984700    0.00000       Uiso       1.00
       xx7          C  0.4488700  0.0935500  0.0776800    0.00000       Uiso       1.00
       xx8          C  0.0668600  0.5936400  0.4135600    0.00000       Uiso       1.00
       xx9          C  0.0650000  0.6461700  0.1964900    0.00000       Uiso       1.00
      xx10          C  0.1188500  0.6971100  0.1202700    0.00000       Uiso       1.00
      xx11          C  0.1226000  0.5945900  0.5581700    0.00000       Uiso       1.00
      xx12          C  0.1750000  0.3035500  0.2611700    0.00000       Uiso       1.00
      xx13          C  0.1766500  0.3547700  0.4815800    0.00000       Uiso       1.00
      xx14          C  0.2308900  0.2499500  0.1750800    0.00000       Uiso       1.00
      xx15          C  0.0080800  0.5434100  0.4981000    0.00000       Uiso       1.00
      xx16          H  0.0193300  0.6475600  0.0806700    0.00000       Uiso       1.00
      xx17          H  0.1170700  0.7394100  0.9425300    0.00000       Uiso       1.00
      xx18          H  0.1240400  0.5539000  0.7394400    0.00000       Uiso       1.00
      xx19          H  0.2221200  0.3551600  0.5986200    0.00000       Uiso       1.00
      xx20          H  0.2950800  0.8563100  0.8763700    0.00000       Uiso       1.00
      xx21          H  0.3944300  0.9466300  0.7459900    0.00000       Uiso       1.00
      xx22          H  0.4943300  0.8521700  0.4137600    0.00000       Uiso       1.00
      xx23          H  0.3954000  0.7603400  0.5430100    0.00000       Uiso       1.00
      xx24          C  0.8396499  0.3554500  0.4983800    0.00000       Uiso       1.00
      xx25          C  0.8942000  0.4057600  0.4273700    0.00000       Uiso       1.00
      xx26          C  0.9492500  0.3536200  0.7945800    0.00000       Uiso       1.00
      xx27          C  0.8948399  0.3028700  0.8653400    0.00000       Uiso       1.00
      xx28          C  0.8395500  0.3039000  0.7192600    0.00000       Uiso       1.00
      xx29          C  0.7842000  0.7479200  0.7984700    0.00000       Uiso       1.00
      xx30          C  0.9488700  0.5935500  0.5776800    0.00000       Uiso       1.00
      xx31          C  0.5668600  0.0936400  0.9135600    0.00000       Uiso       1.00
      xx32          C  0.5650000  0.1461700  0.6964900    0.00000       Uiso       1.00
      xx33          C  0.6188500  0.1971100  0.6202700    0.00000       Uiso       1.00
      xx34          C  0.6226000  0.0945900  0.0581700    0.00000       Uiso       1.00
      xx35          C  0.6750000  0.8035500  0.7611700    0.00000       Uiso       1.00
      xx36          C  0.6766500  0.8547700  0.9815800    0.00000       Uiso       1.00
      xx37          N  0.7308900  0.7499500  0.6750800    0.00000       Uiso       1.00
      xx38          C  0.5080800  0.0434100  0.9980999    0.00000       Uiso       1.00
      xx39          H  0.5193300  0.1475600  0.5806700    0.00000       Uiso       1.00
      xx40          H  0.6170700  0.2394100  0.4425300    0.00000       Uiso       1.00
      xx41          H  0.6240400  0.0539000  0.2394400    0.00000       Uiso       1.00
      xx42          H  0.7221200  0.8551600  0.0986200    0.00000       Uiso       1.00
      xx43          H  0.7950799  0.3563100  0.3763700    0.00000       Uiso       1.00
      xx44          H  0.8944300  0.4466300  0.2459900    0.00000       Uiso       1.00
      xx45          H  0.9943300  0.3521700  0.9137601    0.00000       Uiso       1.00
      xx46          H  0.8954000  0.2603400  0.0430100    0.00000       Uiso       1.00
      xx47          H  0.2266900  0.2093800  0.9948801    0.00000       Uiso       1.00
      xx48          H  0.7884399  0.7885700  0.9784700    0.00000       Uiso       1.00
      xx49          C  0.3396500  0.1445500  0.9983800    0.00000       Uiso       1.00
      xx50          C  0.3942000  0.0942400  0.9273700    0.00000       Uiso       1.00
      xx51          C  0.4492500  0.1463800  0.2945800    0.00000       Uiso       1.00
      xx52          C  0.3948400  0.1971300  0.3653400    0.00000       Uiso       1.00
      xx53          C  0.3395500  0.1961000  0.2192600    0.00000       Uiso       1.00
      xx54          N  0.2842000  0.7520800  0.2984700    0.00000       Uiso       1.00
      xx55          C  0.4488700  0.9064500  0.0776800    0.00000       Uiso       1.00
      xx56          C  0.0668600  0.4063600  0.4135600    0.00000       Uiso       1.00
      xx57          C  0.0650000  0.3538300  0.1964900    0.00000       Uiso       1.00
      xx58          C  0.1188500  0.3028900  0.1202700    0.00000       Uiso       1.00
      xx59          C  0.1226000  0.4054100  0.5581700    0.00000       Uiso       1.00
      xx60          C  0.1750000  0.6964500  0.2611700    0.00000       Uiso       1.00
      xx61          C  0.1766500  0.6452300  0.4815800    0.00000       Uiso       1.00
      xx62          C  0.2308900  0.7500500  0.1750800    0.00000       Uiso       1.00
      xx63          C  0.0080800  0.4565900  0.4981000    0.00000       Uiso       1.00
      xx64          H  0.0193300  0.3524400  0.0806700    0.00000       Uiso       1.00
      xx65          H  0.1170700  0.2605900  0.9425300    0.00000       Uiso       1.00
      xx66          H  0.1240400  0.4461000  0.7394400    0.00000       Uiso       1.00
      xx67          H  0.2221200  0.6448400  0.5986200    0.00000       Uiso       1.00
      xx68          H  0.2950800  0.1436900  0.8763700    0.00000       Uiso       1.00
      xx69          H  0.3944300  0.0533700  0.7459900    0.00000       Uiso       1.00
      xx70          H  0.4943300  0.1478300  0.4137600    0.00000       Uiso       1.00
      xx71          H  0.3954000  0.2396600  0.5430100    0.00000       Uiso       1.00
      xx72          C  0.8396499  0.6445500  0.4983800    0.00000       Uiso       1.00
      xx73          C  0.8942000  0.5942400  0.4273700    0.00000       Uiso       1.00
      xx74          C  0.9492500  0.6463800  0.7945800    0.00000       Uiso       1.00
      xx75          C  0.8948399  0.6971300  0.8653400    0.00000       Uiso       1.00
      xx76          C  0.8395500  0.6961000  0.7192600    0.00000       Uiso       1.00
      xx77          C  0.7842000  0.2520800  0.7984700    0.00000       Uiso       1.00
      xx78          C  0.9488700  0.4064500  0.5776800    0.00000       Uiso       1.00
      xx79          C  0.5668600  0.9063600  0.9135600    0.00000       Uiso       1.00
      xx80          C  0.5650000  0.8538300  0.6964900    0.00000       Uiso       1.00
      xx81          C  0.6188500  0.8028900  0.6202700    0.00000       Uiso       1.00
      xx82          C  0.6226000  0.9054100  0.0581700    0.00000       Uiso       1.00
      xx83          C  0.6750000  0.1964500  0.7611700    0.00000       Uiso       1.00
      xx84          C  0.6766500  0.1452300  0.9815800    0.00000       Uiso       1.00
      xx85          N  0.7308900  0.2500500  0.6750800    0.00000       Uiso       1.00
      xx86          C  0.5080800  0.9565900  0.9980999    0.00000       Uiso       1.00
      xx87          H  0.5193300  0.8524400  0.5806700    0.00000       Uiso       1.00
      xx88          H  0.6170700  0.7605900  0.4425300    0.00000       Uiso       1.00
      xx89          H  0.6240400  0.9461000  0.2394400    0.00000       Uiso       1.00
      xx90          H  0.7221200  0.1448400  0.0986200    0.00000       Uiso       1.00
      xx91          H  0.7950799  0.6436900  0.3763700    0.00000       Uiso       1.00
      xx92          H  0.8944300  0.5533700  0.2459900    0.00000       Uiso       1.00
      xx93          H  0.9943300  0.6478300  0.9137601    0.00000       Uiso       1.00
      xx94          H  0.8954000  0.7396600  0.0430100    0.00000       Uiso       1.00
      xx95          H  0.2266900  0.7906200  0.9948801    0.00000       Uiso       1.00
      xx96          H  0.7884399  0.2114300  0.9784700    0.00000       Uiso       1.00
