data_TPE-COF_II
_audit_creation_date              0000-00-00
_audit_creation_method            'LanYouShi'
_symmetry_space_group_name_H-M    'P1'
_cell_length_a                    26.4624996
_cell_length_b                    44.0191002
_cell_length_c                    5.6343002
_cell_angle_alpha                 90.0000000
_cell_angle_beta                  109.8700027
_cell_angle_gamma                 90.0000000
loop_
_atom_site_label
_atom_site_type_symbol
_atom_site_fract_x
_atom_site_fract_y
_atom_site_fract_z
_atom_site_U_iso_or_equiv
_atom_site_adp_type
_atom_site_occupancy
       xx1          N  0.3467700  0.1083400  0.3169900    0.00000       Uiso       1.00
       xx2          C  0.3523200  0.1346500  0.2255400    0.00000       Uiso       1.00
       xx3          C  0.3253800  0.1608800  0.2905300    0.00000       Uiso       1.00
       xx4          C  0.1296000  0.1959400  0.6255500    0.00000       Uiso       1.00
       xx5          C  0.1772200  0.2115700  0.6611200    0.00000       Uiso       1.00
       xx6          C  0.1855100  0.2271000  0.4600300    0.00000       Uiso       1.00
       xx7          C  0.1428200  0.2299400  0.2312500    0.00000       Uiso       1.00
       xx8          C  0.0941000  0.2151400  0.1978600    0.00000       Uiso       1.00
       xx9          C  0.4502900  0.0335700  0.4061200    0.00000       Uiso       1.00
      xx10          C  0.4173700  0.0368600  0.5533000    0.00000       Uiso       1.00
      xx11          C  0.3790400  0.0597800  0.5008300    0.00000       Uiso       1.00
      xx12          C  0.3759300  0.0812100  0.3140300    0.00000       Uiso       1.00
      xx13          C  0.4070900  0.0774600  0.1585300    0.00000       Uiso       1.00
      xx14          C  0.4437300  0.0535700  0.2041600    0.00000       Uiso       1.00
      xx15          C  0.0885400  0.1966500  0.3905200    0.00000       Uiso       1.00
      xx16          C  0.3007400  0.1578100  0.4736700    0.00000       Uiso       1.00
      xx17          C  0.2755200  0.1823400  0.5388900    0.00000       Uiso       1.00
      xx18          C  0.2733900  0.2106500  0.4214900    0.00000       Uiso       1.00
      xx19          C  0.2983500  0.2137500  0.2384400    0.00000       Uiso       1.00
      xx20          C  0.3254200  0.1892500  0.1784300    0.00000       Uiso       1.00
      xx21          C  0.2592600  0.2644400  0.5248200    0.00000       Uiso       1.00
      xx22          C  0.0420800  0.8235400  0.3418200    0.00000       Uiso       1.00
      xx23          O  0.5468500  0.3479100  0.4497100    0.00000       Uiso       1.00
      xx24          H  0.3776200  0.1369600  0.0982100    0.00000       Uiso       1.00
      xx25          H  0.1239800  0.1825300  0.7879000    0.00000       Uiso       1.00
      xx26          H  0.2099500  0.2118500  0.8549201    0.00000       Uiso       1.00
      xx27          H  0.1477900  0.2443100  0.0723000    0.00000       Uiso       1.00
      xx28          H  0.0589100  0.2180900  0.0142100    0.00000       Uiso       1.00
      xx29          H  0.4219200  0.0206800  0.7172900    0.00000       Uiso       1.00
      xx30          H  0.3500000  0.0611100  0.6106000    0.00000       Uiso       1.00
      xx31          H  0.4023700  0.0938900 -0.0039900    0.00000       Uiso       1.00
      xx32          H  0.4685000  0.0503800  0.0753200    0.00000       Uiso       1.00
      xx33          H  0.3014000  0.1349700  0.5700500    0.00000       Uiso       1.00
      xx34          H  0.2560900  0.1797100  0.6899500    0.00000       Uiso       1.00
      xx35          H  0.2966000  0.2363900  0.1376500    0.00000       Uiso       1.00
      xx36          H  0.3475200  0.1923800  0.0381900    0.00000       Uiso       1.00
      xx37          H  0.0092100  0.8102800  0.3848600    0.00000       Uiso       1.00
      xx38          N  0.8467700  0.6083400  0.3169900    0.00000       Uiso       1.00
      xx39          C  0.8523200  0.6346500  0.2255400    0.00000       Uiso       1.00
      xx40          C  0.8253800  0.6608800  0.2905300    0.00000       Uiso       1.00
      xx41          C  0.6296000  0.6959400  0.6255500    0.00000       Uiso       1.00
      xx42          C  0.6772200  0.7115700  0.6611200    0.00000       Uiso       1.00
      xx43          C  0.6855100  0.7271000  0.4600300    0.00000       Uiso       1.00
      xx44          C  0.6428200  0.7299400  0.2312500    0.00000       Uiso       1.00
      xx45          C  0.5941000  0.7151400  0.1978600    0.00000       Uiso       1.00
      xx46          C  0.9502900  0.5335700  0.4061200    0.00000       Uiso       1.00
      xx47          C  0.9173700  0.5368600  0.5533000    0.00000       Uiso       1.00
      xx48          C  0.8790399  0.5597800  0.5008300    0.00000       Uiso       1.00
      xx49          C  0.8759300  0.5812100  0.3140300    0.00000       Uiso       1.00
      xx50          C  0.9070900  0.5774600  0.1585300    0.00000       Uiso       1.00
      xx51          C  0.9437300  0.5535700  0.2041600    0.00000       Uiso       1.00
      xx52          C  0.5885400  0.6966500  0.3905200    0.00000       Uiso       1.00
      xx53          C  0.8007400  0.6578100  0.4736700    0.00000       Uiso       1.00
      xx54          C  0.7755200  0.6823400  0.5388900    0.00000       Uiso       1.00
      xx55          C  0.7733900  0.7106500  0.4214900    0.00000       Uiso       1.00
      xx56          C  0.7983500  0.7137500  0.2384400    0.00000       Uiso       1.00
      xx57          C  0.8254200  0.6892500  0.1784300    0.00000       Uiso       1.00
      xx58          C  0.7592601  0.7644399  0.5248200    0.00000       Uiso       1.00
      xx59          C  0.5420800  0.3235400  0.3418200    0.00000       Uiso       1.00
      xx60          O  0.0468500  0.8479100  0.4497100    0.00000       Uiso       1.00
      xx61          H  0.8776200  0.6369600  0.0982100    0.00000       Uiso       1.00
      xx62          H  0.6239800  0.6825300  0.7879000    0.00000       Uiso       1.00
      xx63          H  0.7099500  0.7118500  0.8549201    0.00000       Uiso       1.00
      xx64          H  0.6477900  0.7443101  0.0723000    0.00000       Uiso       1.00
      xx65          H  0.5589100  0.7180900  0.0142100    0.00000       Uiso       1.00
      xx66          H  0.9219200  0.5206800  0.7172900    0.00000       Uiso       1.00
      xx67          H  0.8500000  0.5611100  0.6106000    0.00000       Uiso       1.00
      xx68          H  0.9023700  0.5938900 -0.0039900    0.00000       Uiso       1.00
      xx69          H  0.9685000  0.5503800  0.0753200    0.00000       Uiso       1.00
      xx70          H  0.8014000  0.6349700  0.5700500    0.00000       Uiso       1.00
      xx71          H  0.7560900  0.6797100  0.6899500    0.00000       Uiso       1.00
      xx72          H  0.7966000  0.7363900  0.1376500    0.00000       Uiso       1.00
      xx73          H  0.8475200  0.6923800  0.0381900    0.00000       Uiso       1.00
      xx74          H  0.5092100  0.3102800  0.3848600    0.00000       Uiso       1.00
      xx75          N  0.6532300  0.1083400  0.6830100    0.00000       Uiso       1.00
      xx76          C  0.6476800  0.1346500  0.7744600    0.00000       Uiso       1.00
      xx77          C  0.6746200  0.1608800  0.7094700    0.00000       Uiso       1.00
      xx78          C  0.8704000  0.1959400  0.3744500    0.00000       Uiso       1.00
      xx79          C  0.8227800  0.2115700  0.3388800    0.00000       Uiso       1.00
      xx80          C  0.8144900  0.2271000  0.5399700    0.00000       Uiso       1.00
      xx81          C  0.8571800  0.2299400  0.7687500    0.00000       Uiso       1.00
      xx82          C  0.9059000  0.2151400  0.8021400    0.00000       Uiso       1.00
      xx83          C  0.5497100  0.0335700  0.5938800    0.00000       Uiso       1.00
      xx84          C  0.5826300  0.0368600  0.4467000    0.00000       Uiso       1.00
      xx85          C  0.6209600  0.0597800  0.4991700    0.00000       Uiso       1.00
      xx86          C  0.6240700  0.0812100  0.6859700    0.00000       Uiso       1.00
      xx87          C  0.5929100  0.0774600  0.8414700    0.00000       Uiso       1.00
      xx88          C  0.5562700  0.0535700  0.7958400    0.00000       Uiso       1.00
      xx89          C  0.9114600  0.1966500  0.6094800    0.00000       Uiso       1.00
      xx90          C  0.6992600  0.1578100  0.5263300    0.00000       Uiso       1.00
      xx91          C  0.7244800  0.1823400  0.4611100    0.00000       Uiso       1.00
      xx92          C  0.7266100  0.2106500  0.5785100    0.00000       Uiso       1.00
      xx93          C  0.7016500  0.2137500  0.7615600    0.00000       Uiso       1.00
      xx94          C  0.6745800  0.1892500  0.8215700    0.00000       Uiso       1.00
      xx95          C  0.7407399  0.2644400  0.4751800    0.00000       Uiso       1.00
      xx96          C  0.9579200  0.8235400  0.6581800    0.00000       Uiso       1.00
      xx97          O  0.4531500  0.3479100  0.5502900    0.00000       Uiso       1.00
      xx98          H  0.6223800  0.1369600  0.9017900    0.00000       Uiso       1.00
      xx99          H  0.8760200  0.1825300  0.2121000    0.00000       Uiso       1.00
     xx100          H  0.7900500  0.2118500  0.1450800    0.00000       Uiso       1.00
     xx101          H  0.8522100  0.2443100  0.9277000    0.00000       Uiso       1.00
     xx102          H  0.9410900  0.2180900  0.9857900    0.00000       Uiso       1.00
     xx103          H  0.5780800  0.0206800  0.2827100    0.00000       Uiso       1.00
     xx104          H  0.6500000  0.0611100  0.3894000    0.00000       Uiso       1.00
     xx105          H  0.5976300  0.0938900  1.0039901    0.00000       Uiso       1.00
     xx106          H  0.5315000  0.0503800  0.9246801    0.00000       Uiso       1.00
     xx107          H  0.6986000  0.1349700  0.4299500    0.00000       Uiso       1.00
     xx108          H  0.7439100  0.1797100  0.3100500    0.00000       Uiso       1.00
     xx109          H  0.7034000  0.2363900  0.8623500    0.00000       Uiso       1.00
     xx110          H  0.6524800  0.1923800  0.9618100    0.00000       Uiso       1.00
     xx111          H  0.9907900  0.8102800  0.6151400    0.00000       Uiso       1.00
     xx112          N  0.1532300  0.6083400  0.6830100    0.00000       Uiso       1.00
     xx113          C  0.1476800  0.6346500  0.7744600    0.00000       Uiso       1.00
     xx114          C  0.1746200  0.6608800  0.7094700    0.00000       Uiso       1.00
     xx115          C  0.3704000  0.6959400  0.3744500    0.00000       Uiso       1.00
     xx116          C  0.3227800  0.7115700  0.3388800    0.00000       Uiso       1.00
     xx117          C  0.3144900  0.7271000  0.5399700    0.00000       Uiso       1.00
     xx118          C  0.3571800  0.7299400  0.7687500    0.00000       Uiso       1.00
     xx119          C  0.4059000  0.7151400  0.8021400    0.00000       Uiso       1.00
     xx120          C  0.0497100  0.5335700  0.5938800    0.00000       Uiso       1.00
     xx121          C  0.0826300  0.5368600  0.4467000    0.00000       Uiso       1.00
     xx122          C  0.1209600  0.5597800  0.4991700    0.00000       Uiso       1.00
     xx123          C  0.1240700  0.5812100  0.6859700    0.00000       Uiso       1.00
     xx124          C  0.0929100  0.5774600  0.8414700    0.00000       Uiso       1.00
     xx125          C  0.0562700  0.5535700  0.7958400    0.00000       Uiso       1.00
     xx126          C  0.4114600  0.6966500  0.6094800    0.00000       Uiso       1.00
     xx127          C  0.1992600  0.6578100  0.5263300    0.00000       Uiso       1.00
     xx128          C  0.2244800  0.6823400  0.4611100    0.00000       Uiso       1.00
     xx129          C  0.2266100  0.7106500  0.5785100    0.00000       Uiso       1.00
     xx130          C  0.2016500  0.7137500  0.7615600    0.00000       Uiso       1.00
     xx131          C  0.1745800  0.6892500  0.8215700    0.00000       Uiso       1.00
     xx132          C  0.2407400  0.7644399  0.4751800    0.00000       Uiso       1.00
     xx133          C  0.4579200  0.3235400  0.6581800    0.00000       Uiso       1.00
     xx134          O  0.9531500  0.8479100  0.5502900    0.00000       Uiso       1.00
     xx135          H  0.1223800  0.6369600  0.9017900    0.00000       Uiso       1.00
     xx136          H  0.3760200  0.6825300  0.2121000    0.00000       Uiso       1.00
     xx137          H  0.2900500  0.7118500  0.1450800    0.00000       Uiso       1.00
     xx138          H  0.3522100  0.7443101  0.9277000    0.00000       Uiso       1.00
     xx139          H  0.4410900  0.7180900  0.9857900    0.00000       Uiso       1.00
     xx140          H  0.0780800  0.5206800  0.2827100    0.00000       Uiso       1.00
     xx141          H  0.1500000  0.5611100  0.3894000    0.00000       Uiso       1.00
     xx142          H  0.0976300  0.5938900  1.0039901    0.00000       Uiso       1.00
     xx143          H  0.0315000  0.5503800  0.9246801    0.00000       Uiso       1.00
     xx144          H  0.1986000  0.6349700  0.4299500    0.00000       Uiso       1.00
     xx145          H  0.2439100  0.6797100  0.3100500    0.00000       Uiso       1.00
     xx146          H  0.2034000  0.7363900  0.8623500    0.00000       Uiso       1.00
     xx147          H  0.1524800  0.6923800  0.9618100    0.00000       Uiso       1.00
     xx148          H  0.4907900  0.3102800  0.6151400    0.00000       Uiso       1.00
     xx149          N  0.6532300  0.8916600  0.6830100    0.00000       Uiso       1.00
     xx150          C  0.6476800  0.8653501  0.7744600    0.00000       Uiso       1.00
     xx151          C  0.6746200  0.8391200  0.7094700    0.00000       Uiso       1.00
     xx152          C  0.8704000  0.8040600  0.3744500    0.00000       Uiso       1.00
     xx153          C  0.8227800  0.7884300  0.3388800    0.00000       Uiso       1.00
     xx154          C  0.8144900  0.7729000  0.5399700    0.00000       Uiso       1.00
     xx155          C  0.8571800  0.7700601  0.7687500    0.00000       Uiso       1.00
     xx156          C  0.9059000  0.7848600  0.8021400    0.00000       Uiso       1.00
     xx157          C  0.5497100  0.9664299  0.5938800    0.00000       Uiso       1.00
     xx158          C  0.5826300  0.9631400  0.4467000    0.00000       Uiso       1.00
     xx159          C  0.6209600  0.9402200  0.4991700    0.00000       Uiso       1.00
     xx160          C  0.6240700  0.9187900  0.6859700    0.00000       Uiso       1.00
     xx161          C  0.5929100  0.9225401  0.8414700    0.00000       Uiso       1.00
     xx162          C  0.5562700  0.9464300  0.7958400    0.00000       Uiso       1.00
     xx163          C  0.9114600  0.8033500  0.6094800    0.00000       Uiso       1.00
     xx164          C  0.6992600  0.8421901  0.5263300    0.00000       Uiso       1.00
     xx165          C  0.7244800  0.8176600  0.4611100    0.00000       Uiso       1.00
     xx166          C  0.7266100  0.7893500  0.5785100    0.00000       Uiso       1.00
     xx167          C  0.7016500  0.7862499  0.7615600    0.00000       Uiso       1.00
     xx168          C  0.6745800  0.8107499  0.8215700    0.00000       Uiso       1.00
     xx169          C  0.7407399  0.7355600  0.4751800    0.00000       Uiso       1.00
     xx170          C  0.9579200  0.1764600  0.6581800    0.00000       Uiso       1.00
     xx171          O  0.4531500  0.6520900  0.5502900    0.00000       Uiso       1.00
     xx172          H  0.6223800  0.8630400  0.9017900    0.00000       Uiso       1.00
     xx173          H  0.8760200  0.8174700  0.2121000    0.00000       Uiso       1.00
     xx174          H  0.7900500  0.7881500  0.1450800    0.00000       Uiso       1.00
     xx175          H  0.8522100  0.7556900  0.9277000    0.00000       Uiso       1.00
     xx176          H  0.9410900  0.7819100  0.9857900    0.00000       Uiso       1.00
     xx177          H  0.5780800  0.9793200  0.2827100    0.00000       Uiso       1.00
     xx178          H  0.6500000  0.9388900  0.3894000    0.00000       Uiso       1.00
     xx179          H  0.5976300  0.9061100  1.0039901    0.00000       Uiso       1.00
     xx180          H  0.5315000  0.9496200  0.9246801    0.00000       Uiso       1.00
     xx181          H  0.6986000  0.8650300  0.4299500    0.00000       Uiso       1.00
     xx182          H  0.7439100  0.8202900  0.3100500    0.00000       Uiso       1.00
     xx183          H  0.7034000  0.7636100  0.8623500    0.00000       Uiso       1.00
     xx184          H  0.6524800  0.8076200  0.9618100    0.00000       Uiso       1.00
     xx185          H  0.9907900  0.1897200  0.6151400    0.00000       Uiso       1.00
     xx186          N  0.1532300  0.3916600  0.6830100    0.00000       Uiso       1.00
     xx187          C  0.1476800  0.3653500  0.7744600    0.00000       Uiso       1.00
     xx188          C  0.1746200  0.3391200  0.7094700    0.00000       Uiso       1.00
     xx189          C  0.3704000  0.3040600  0.3744500    0.00000       Uiso       1.00
     xx190          C  0.3227800  0.2884300  0.3388800    0.00000       Uiso       1.00
     xx191          C  0.3144900  0.2729000  0.5399700    0.00000       Uiso       1.00
     xx192          C  0.3571800  0.2700600  0.7687500    0.00000       Uiso       1.00
     xx193          C  0.4059000  0.2848600  0.8021400    0.00000       Uiso       1.00
     xx194          C  0.0497100  0.4664300  0.5938800    0.00000       Uiso       1.00
     xx195          C  0.0826300  0.4631400  0.4467000    0.00000       Uiso       1.00
     xx196          C  0.1209600  0.4402200  0.4991700    0.00000       Uiso       1.00
     xx197          C  0.1240700  0.4187900  0.6859700    0.00000       Uiso       1.00
     xx198          C  0.0929100  0.4225400  0.8414700    0.00000       Uiso       1.00
     xx199          C  0.0562700  0.4464300  0.7958400    0.00000       Uiso       1.00
     xx200          C  0.4114600  0.3033500  0.6094800    0.00000       Uiso       1.00
     xx201          C  0.1992600  0.3421900  0.5263300    0.00000       Uiso       1.00
     xx202          C  0.2244800  0.3176600  0.4611100    0.00000       Uiso       1.00
     xx203          C  0.2266100  0.2893500  0.5785100    0.00000       Uiso       1.00
     xx204          C  0.2016500  0.2862500  0.7615600    0.00000       Uiso       1.00
     xx205          C  0.1745800  0.3107500  0.8215700    0.00000       Uiso       1.00
     xx206          C  0.2407400  0.2355600  0.4751800    0.00000       Uiso       1.00
     xx207          C  0.4579200  0.6764600  0.6581800    0.00000       Uiso       1.00
     xx208          O  0.9531500  0.1520900  0.5502900    0.00000       Uiso       1.00
     xx209          H  0.1223800  0.3630400  0.9017900    0.00000       Uiso       1.00
     xx210          H  0.3760200  0.3174700  0.2121000    0.00000       Uiso       1.00
     xx211          H  0.2900500  0.2881500  0.1450800    0.00000       Uiso       1.00
     xx212          H  0.3522100  0.2556900  0.9277000    0.00000       Uiso       1.00
     xx213          H  0.4410900  0.2819100  0.9857900    0.00000       Uiso       1.00
     xx214          H  0.0780800  0.4793200  0.2827100    0.00000       Uiso       1.00
     xx215          H  0.1500000  0.4388900  0.3894000    0.00000       Uiso       1.00
     xx216          H  0.0976300  0.4061100  1.0039901    0.00000       Uiso       1.00
     xx217          H  0.0315000  0.4496200  0.9246801    0.00000       Uiso       1.00
     xx218          H  0.1986000  0.3650300  0.4299500    0.00000       Uiso       1.00
     xx219          H  0.2439100  0.3202900  0.3100500    0.00000       Uiso       1.00
     xx220          H  0.2034000  0.2636100  0.8623500    0.00000       Uiso       1.00
     xx221          H  0.1524800  0.3076200  0.9618100    0.00000       Uiso       1.00
     xx222          H  0.4907900  0.6897200  0.6151400    0.00000       Uiso       1.00
     xx223          N  0.3467700  0.8916600  0.3169900    0.00000       Uiso       1.00
     xx224          C  0.3523200  0.8653501  0.2255400    0.00000       Uiso       1.00
     xx225          C  0.3253800  0.8391200  0.2905300    0.00000       Uiso       1.00
     xx226          C  0.1296000  0.8040600  0.6255500    0.00000       Uiso       1.00
     xx227          C  0.1772200  0.7884300  0.6611200    0.00000       Uiso       1.00
     xx228          C  0.1855100  0.7729000  0.4600300    0.00000       Uiso       1.00
     xx229          C  0.1428200  0.7700601  0.2312500    0.00000       Uiso       1.00
     xx230          C  0.0941000  0.7848600  0.1978600    0.00000       Uiso       1.00
     xx231          C  0.4502900  0.9664299  0.4061200    0.00000       Uiso       1.00
     xx232          C  0.4173700  0.9631400  0.5533000    0.00000       Uiso       1.00
     xx233          C  0.3790400  0.9402200  0.5008300    0.00000       Uiso       1.00
     xx234          C  0.3759300  0.9187900  0.3140300    0.00000       Uiso       1.00
     xx235          C  0.4070900  0.9225401  0.1585300    0.00000       Uiso       1.00
     xx236          C  0.4437300  0.9464300  0.2041600    0.00000       Uiso       1.00
     xx237          C  0.0885400  0.8033500  0.3905200    0.00000       Uiso       1.00
     xx238          C  0.3007400  0.8421901  0.4736700    0.00000       Uiso       1.00
     xx239          C  0.2755200  0.8176600  0.5388900    0.00000       Uiso       1.00
     xx240          C  0.2733900  0.7893500  0.4214900    0.00000       Uiso       1.00
     xx241          C  0.2983500  0.7862499  0.2384400    0.00000       Uiso       1.00
     xx242          C  0.3254200  0.8107499  0.1784300    0.00000       Uiso       1.00
     xx243          C  0.2592600  0.7355600  0.5248200    0.00000       Uiso       1.00
     xx244          C  0.0420800  0.1764600  0.3418200    0.00000       Uiso       1.00
     xx245          O  0.5468500  0.6520900  0.4497100    0.00000       Uiso       1.00
     xx246          H  0.3776200  0.8630400  0.0982100    0.00000       Uiso       1.00
     xx247          H  0.1239800  0.8174700  0.7879000    0.00000       Uiso       1.00
     xx248          H  0.2099500  0.7881500  0.8549201    0.00000       Uiso       1.00
     xx249          H  0.1477900  0.7556900  0.0723000    0.00000       Uiso       1.00
     xx250          H  0.0589100  0.7819100  0.0142100    0.00000       Uiso       1.00
     xx251          H  0.4219200  0.9793200  0.7172900    0.00000       Uiso       1.00
     xx252          H  0.3500000  0.9388900  0.6106000    0.00000       Uiso       1.00
     xx253          H  0.4023700  0.9061100 -0.0039900    0.00000       Uiso       1.00
     xx254          H  0.4685000  0.9496200  0.0753200    0.00000       Uiso       1.00
     xx255          H  0.3014000  0.8650300  0.5700500    0.00000       Uiso       1.00
     xx256          H  0.2560900  0.8202900  0.6899500    0.00000       Uiso       1.00
     xx257          H  0.2966000  0.7636100  0.1376500    0.00000       Uiso       1.00
     xx258          H  0.3475200  0.8076200  0.0381900    0.00000       Uiso       1.00
     xx259          H  0.0092100  0.1897200  0.3848600    0.00000       Uiso       1.00
     xx260          N  0.8467700  0.3916600  0.3169900    0.00000       Uiso       1.00
     xx261          C  0.8523200  0.3653500  0.2255400    0.00000       Uiso       1.00
     xx262          C  0.8253800  0.3391200  0.2905300    0.00000       Uiso       1.00
     xx263          C  0.6296000  0.3040600  0.6255500    0.00000       Uiso       1.00
     xx264          C  0.6772200  0.2884300  0.6611200    0.00000       Uiso       1.00
     xx265          C  0.6855100  0.2729000  0.4600300    0.00000       Uiso       1.00
     xx266          C  0.6428200  0.2700600  0.2312500    0.00000       Uiso       1.00
     xx267          C  0.5941000  0.2848600  0.1978600    0.00000       Uiso       1.00
     xx268          C  0.9502900  0.4664300  0.4061200    0.00000       Uiso       1.00
     xx269          C  0.9173700  0.4631400  0.5533000    0.00000       Uiso       1.00
     xx270          C  0.8790399  0.4402200  0.5008300    0.00000       Uiso       1.00
     xx271          C  0.8759300  0.4187900  0.3140300    0.00000       Uiso       1.00
     xx272          C  0.9070900  0.4225400  0.1585300    0.00000       Uiso       1.00
     xx273          C  0.9437300  0.4464300  0.2041600    0.00000       Uiso       1.00
     xx274          C  0.5885400  0.3033500  0.3905200    0.00000       Uiso       1.00
     xx275          C  0.8007400  0.3421900  0.4736700    0.00000       Uiso       1.00
     xx276          C  0.7755200  0.3176600  0.5388900    0.00000       Uiso       1.00
     xx277          C  0.7733900  0.2893500  0.4214900    0.00000       Uiso       1.00
     xx278          C  0.7983500  0.2862500  0.2384400    0.00000       Uiso       1.00
     xx279          C  0.8254200  0.3107500  0.1784300    0.00000       Uiso       1.00
     xx280          C  0.7592601  0.2355600  0.5248200    0.00000       Uiso       1.00
     xx281          C  0.5420800  0.6764600  0.3418200    0.00000       Uiso       1.00
     xx282          O  0.0468500  0.1520900  0.4497100    0.00000       Uiso       1.00
     xx283          H  0.8776200  0.3630400  0.0982100    0.00000       Uiso       1.00
     xx284          H  0.6239800  0.3174700  0.7879000    0.00000       Uiso       1.00
     xx285          H  0.7099500  0.2881500  0.8549201    0.00000       Uiso       1.00
     xx286          H  0.6477900  0.2556900  0.0723000    0.00000       Uiso       1.00
     xx287          H  0.5589100  0.2819100  0.0142100    0.00000       Uiso       1.00
     xx288          H  0.9219200  0.4793200  0.7172900    0.00000       Uiso       1.00
     xx289          H  0.8500000  0.4388900  0.6106000    0.00000       Uiso       1.00
     xx290          H  0.9023700  0.4061100 -0.0039900    0.00000       Uiso       1.00
     xx291          H  0.9685000  0.4496200  0.0753200    0.00000       Uiso       1.00
     xx292          H  0.8014000  0.3650300  0.5700500    0.00000       Uiso       1.00
     xx293          H  0.7560900  0.3202900  0.6899500    0.00000       Uiso       1.00
     xx294          H  0.7966000  0.2636100  0.1376500    0.00000       Uiso       1.00
     xx295          H  0.8475200  0.3076200  0.0381900    0.00000       Uiso       1.00
     xx296          H  0.5092100  0.6897200  0.3848600    0.00000       Uiso       1.00
     xx297          C  0.0000000  0.4846500  0.5000000    0.00000       Uiso       1.00
     xx298          C  0.5000000  0.9846500  0.5000000    0.00000       Uiso       1.00
     xx299          C  0.0000000  0.5153500  0.5000000    0.00000       Uiso       1.00
     xx300          C  0.5000000  0.0153500  0.5000000    0.00000       Uiso       1.00
