data_TPE-COF_III
_audit_creation_date              0000-00-00
_audit_creation_method            'LanYouShi'
_symmetry_space_group_name_H-M    'P1'
_cell_length_a                    26.3251991
_cell_length_b                    44.5425987
_cell_length_c                    5.6472001
_cell_angle_alpha                 90.0000000
_cell_angle_beta                  110.9499969
_cell_angle_gamma                 90.0000000
loop_
_atom_site_label
_atom_site_type_symbol
_atom_site_fract_x
_atom_site_fract_y
_atom_site_fract_z
_atom_site_U_iso_or_equiv
_atom_site_adp_type
_atom_site_occupancy
       xx1          N  0.3381600  0.1049200  0.3604600    0.00000       Uiso       1.00
       xx2          C  0.3333700  0.1297700  0.2298200    0.00000       Uiso       1.00
       xx3          C  0.3034700  0.1560800  0.2761100    0.00000       Uiso       1.00
       xx4          C  0.1016400  0.2256700  0.5709000    0.00000       Uiso       1.00
       xx5          C  0.1565300  0.2247800  0.6059100    0.00000       Uiso       1.00
       xx6          C  0.1760700  0.2379700  0.4268500    0.00000       Uiso       1.00
       xx7          C  0.1398100  0.2521800  0.2138300    0.00000       Uiso       1.00
       xx8          C  0.0849800  0.2531100  0.1797200    0.00000       Uiso       1.00
       xx9          H  0.3547500  0.1328100  0.0989100    0.00000       Uiso       1.00
      xx10          H  0.0868700  0.2155500  0.7097600    0.00000       Uiso       1.00
      xx11          H  0.1836800  0.2144000  0.7751100    0.00000       Uiso       1.00
      xx12          H  0.0573300  0.2641500  0.0150100    0.00000       Uiso       1.00
      xx13          C  0.4499600  0.0335900  0.4242600    0.00000       Uiso       1.00
      xx14          C  0.4182700  0.0346000  0.5786100    0.00000       Uiso       1.00
      xx15          C  0.3784300  0.0567100  0.5405200    0.00000       Uiso       1.00
      xx16          C  0.3717500  0.0793100  0.3571800    0.00000       Uiso       1.00
      xx17          C  0.4020200  0.0774800  0.1944000    0.00000       Uiso       1.00
      xx18          C  0.4407300  0.0548200  0.2285400    0.00000       Uiso       1.00
      xx19          C  0.0658800  0.2398000  0.3578500    0.00000       Uiso       1.00
      xx20          C  0.2765200  0.1549400  0.4520700    0.00000       Uiso       1.00
      xx21          C  0.2526400  0.1811000  0.5073500    0.00000       Uiso       1.00
      xx22          C  0.2558300  0.2088800  0.3903900    0.00000       Uiso       1.00
      xx23          C  0.2800100  0.2094200  0.2043100    0.00000       Uiso       1.00
      xx24          C  0.3044800  0.1834700  0.1511900    0.00000       Uiso       1.00
      xx25          H  0.3550800  0.0573700  0.6650900    0.00000       Uiso       1.00
      xx26          H  0.3977600  0.0938400  0.0462200    0.00000       Uiso       1.00
      xx27          H  0.4656300  0.0548200  0.1107100    0.00000       Uiso       1.00
      xx28          H  0.2749500  0.1340900  0.5512700    0.00000       Uiso       1.00
      xx29          H  0.2332300  0.1796500  0.6472000    0.00000       Uiso       1.00
      xx30          H  0.3249800  0.1848800  0.0148000    0.00000       Uiso       1.00
      xx31          C  0.2656800  0.2626500  0.5377800    0.00000       Uiso       1.00
      xx32          H  0.1538500  0.7375000  0.0741300    0.00000       Uiso       1.00
      xx33          H  0.2195600  0.7301000  0.8976901    0.00000       Uiso       1.00
      xx34          H  0.0234300  0.7595100  0.3311500    0.00000       Uiso       1.00
      xx35          H  0.5748400  0.9827900  0.2636100    0.00000       Uiso       1.00
      xx36          N  0.8381600  0.6049200  0.3604600    0.00000       Uiso       1.00
      xx37          C  0.8333700  0.6297700  0.2298200    0.00000       Uiso       1.00
      xx38          C  0.8034700  0.6560800  0.2761100    0.00000       Uiso       1.00
      xx39          C  0.6016400  0.7256700  0.5709000    0.00000       Uiso       1.00
      xx40          C  0.6565301  0.7247800  0.6059100    0.00000       Uiso       1.00
      xx41          C  0.6760700  0.7379700  0.4268500    0.00000       Uiso       1.00
      xx42          C  0.6398100  0.7521800  0.2138300    0.00000       Uiso       1.00
      xx43          C  0.5849800  0.7531100  0.1797200    0.00000       Uiso       1.00
      xx44          H  0.8547500  0.6328100  0.0989100    0.00000       Uiso       1.00
      xx45          H  0.5868700  0.7155500  0.7097600    0.00000       Uiso       1.00
      xx46          H  0.6836800  0.7144000  0.7751100    0.00000       Uiso       1.00
      xx47          H  0.5573300  0.7641500  0.0150100    0.00000       Uiso       1.00
      xx48          C  0.9499600  0.5335900  0.4242600    0.00000       Uiso       1.00
      xx49          C  0.9182701  0.5346000  0.5786100    0.00000       Uiso       1.00
      xx50          C  0.8784300  0.5567100  0.5405200    0.00000       Uiso       1.00
      xx51          C  0.8717500  0.5793100  0.3571800    0.00000       Uiso       1.00
      xx52          C  0.9020200  0.5774800  0.1944000    0.00000       Uiso       1.00
      xx53          C  0.9407300  0.5548200  0.2285400    0.00000       Uiso       1.00
      xx54          C  0.5658800  0.7398000  0.3578500    0.00000       Uiso       1.00
      xx55          C  0.7765200  0.6549400  0.4520700    0.00000       Uiso       1.00
      xx56          C  0.7526400  0.6811000  0.5073500    0.00000       Uiso       1.00
      xx57          C  0.7558300  0.7088800  0.3903900    0.00000       Uiso       1.00
      xx58          C  0.7800099  0.7094200  0.2043100    0.00000       Uiso       1.00
      xx59          C  0.8044800  0.6834700  0.1511900    0.00000       Uiso       1.00
      xx60          H  0.8550800  0.5573700  0.6650900    0.00000       Uiso       1.00
      xx61          H  0.8977600  0.5938400  0.0462200    0.00000       Uiso       1.00
      xx62          H  0.9656300  0.5548200  0.1107100    0.00000       Uiso       1.00
      xx63          H  0.7749500  0.6340900  0.5512700    0.00000       Uiso       1.00
      xx64          H  0.7332300  0.6796500  0.6472000    0.00000       Uiso       1.00
      xx65          H  0.8249800  0.6848800  0.0148000    0.00000       Uiso       1.00
      xx66          C  0.7656800  0.7626500  0.5377800    0.00000       Uiso       1.00
      xx67          H  0.6538500  0.2375000  0.0741300    0.00000       Uiso       1.00
      xx68          H  0.7195600  0.2301000  0.8976901    0.00000       Uiso       1.00
      xx69          H  0.5234300  0.2595100  0.3311500    0.00000       Uiso       1.00
      xx70          H  0.0748400  0.4827900  0.2636100    0.00000       Uiso       1.00
      xx71          N  0.6618400  0.1049200  0.6395400    0.00000       Uiso       1.00
      xx72          C  0.6666300  0.1297700  0.7701800    0.00000       Uiso       1.00
      xx73          C  0.6965299  0.1560800  0.7238900    0.00000       Uiso       1.00
      xx74          C  0.8983600  0.2256700  0.4291000    0.00000       Uiso       1.00
      xx75          C  0.8434700  0.2247800  0.3940900    0.00000       Uiso       1.00
      xx76          C  0.8239300  0.2379700  0.5731500    0.00000       Uiso       1.00
      xx77          C  0.8601900  0.2521800  0.7861700    0.00000       Uiso       1.00
      xx78          C  0.9150200  0.2531100  0.8202800    0.00000       Uiso       1.00
      xx79          H  0.6452500  0.1328100  0.9010900    0.00000       Uiso       1.00
      xx80          H  0.9131300  0.2155500  0.2902400    0.00000       Uiso       1.00
      xx81          H  0.8163200  0.2144000  0.2248900    0.00000       Uiso       1.00
      xx82          H  0.9426699  0.2641500  0.9849900    0.00000       Uiso       1.00
      xx83          C  0.5500400  0.0335900  0.5757400    0.00000       Uiso       1.00
      xx84          C  0.5817300  0.0346000  0.4213900    0.00000       Uiso       1.00
      xx85          C  0.6215700  0.0567100  0.4594800    0.00000       Uiso       1.00
      xx86          C  0.6282500  0.0793100  0.6428200    0.00000       Uiso       1.00
      xx87          C  0.5979800  0.0774800  0.8055999    0.00000       Uiso       1.00
      xx88          C  0.5592700  0.0548200  0.7714600    0.00000       Uiso       1.00
      xx89          C  0.9341200  0.2398000  0.6421500    0.00000       Uiso       1.00
      xx90          C  0.7234800  0.1549400  0.5479300    0.00000       Uiso       1.00
      xx91          C  0.7473600  0.1811000  0.4926500    0.00000       Uiso       1.00
      xx92          C  0.7441700  0.2088800  0.6096100    0.00000       Uiso       1.00
      xx93          C  0.7199900  0.2094200  0.7956900    0.00000       Uiso       1.00
      xx94          C  0.6955200  0.1834700  0.8488100    0.00000       Uiso       1.00
      xx95          H  0.6449200  0.0573700  0.3349100    0.00000       Uiso       1.00
      xx96          H  0.6022400  0.0938400  0.9537800    0.00000       Uiso       1.00
      xx97          H  0.5343700  0.0548200  0.8892900    0.00000       Uiso       1.00
      xx98          H  0.7250500  0.1340900  0.4487300    0.00000       Uiso       1.00
      xx99          H  0.7667700  0.1796500  0.3528000    0.00000       Uiso       1.00
     xx100          H  0.6750200  0.1848800  0.9852000    0.00000       Uiso       1.00
     xx101          C  0.7343200  0.2626500  0.4622200    0.00000       Uiso       1.00
     xx102          H  0.8461500  0.7375000  0.9258700    0.00000       Uiso       1.00
     xx103          H  0.7804400  0.7301000  0.1023100    0.00000       Uiso       1.00
     xx104          H  0.9765700  0.7595100  0.6688500    0.00000       Uiso       1.00
     xx105          H  0.4251600  0.9827900  0.7363900    0.00000       Uiso       1.00
     xx106          N  0.1618400  0.6049200  0.6395400    0.00000       Uiso       1.00
     xx107          C  0.1666300  0.6297700  0.7701800    0.00000       Uiso       1.00
     xx108          C  0.1965300  0.6560800  0.7238900    0.00000       Uiso       1.00
     xx109          C  0.3983600  0.7256700  0.4291000    0.00000       Uiso       1.00
     xx110          C  0.3434700  0.7247800  0.3940900    0.00000       Uiso       1.00
     xx111          C  0.3239300  0.7379700  0.5731500    0.00000       Uiso       1.00
     xx112          C  0.3601900  0.7521800  0.7861700    0.00000       Uiso       1.00
     xx113          C  0.4150200  0.7531100  0.8202800    0.00000       Uiso       1.00
     xx114          H  0.1452500  0.6328100  0.9010900    0.00000       Uiso       1.00
     xx115          H  0.4131300  0.7155500  0.2902400    0.00000       Uiso       1.00
     xx116          H  0.3163200  0.7144000  0.2248900    0.00000       Uiso       1.00
     xx117          H  0.4426700  0.7641500  0.9849900    0.00000       Uiso       1.00
     xx118          C  0.0500400  0.5335900  0.5757400    0.00000       Uiso       1.00
     xx119          C  0.0817300  0.5346000  0.4213900    0.00000       Uiso       1.00
     xx120          C  0.1215700  0.5567100  0.4594800    0.00000       Uiso       1.00
     xx121          C  0.1282500  0.5793100  0.6428200    0.00000       Uiso       1.00
     xx122          C  0.0979800  0.5774800  0.8055999    0.00000       Uiso       1.00
     xx123          C  0.0592700  0.5548200  0.7714600    0.00000       Uiso       1.00
     xx124          C  0.4341200  0.7398000  0.6421500    0.00000       Uiso       1.00
     xx125          C  0.2234800  0.6549400  0.5479300    0.00000       Uiso       1.00
     xx126          C  0.2473600  0.6811000  0.4926500    0.00000       Uiso       1.00
     xx127          C  0.2441700  0.7088800  0.6096100    0.00000       Uiso       1.00
     xx128          C  0.2199900  0.7094200  0.7956900    0.00000       Uiso       1.00
     xx129          C  0.1955200  0.6834700  0.8488100    0.00000       Uiso       1.00
     xx130          H  0.1449200  0.5573700  0.3349100    0.00000       Uiso       1.00
     xx131          H  0.1022400  0.5938400  0.9537800    0.00000       Uiso       1.00
     xx132          H  0.0343700  0.5548200  0.8892900    0.00000       Uiso       1.00
     xx133          H  0.2250500  0.6340900  0.4487300    0.00000       Uiso       1.00
     xx134          H  0.2667700  0.6796500  0.3528000    0.00000       Uiso       1.00
     xx135          H  0.1750200  0.6848800  0.9852000    0.00000       Uiso       1.00
     xx136          C  0.2343200  0.7626500  0.4622200    0.00000       Uiso       1.00
     xx137          H  0.3461500  0.2375000  0.9258700    0.00000       Uiso       1.00
     xx138          H  0.2804400  0.2301000  0.1023100    0.00000       Uiso       1.00
     xx139          H  0.4765700  0.2595100  0.6688500    0.00000       Uiso       1.00
     xx140          H  0.9251600  0.4827900  0.7363900    0.00000       Uiso       1.00
     xx141          N  0.6618400  0.8950799  0.6395400    0.00000       Uiso       1.00
     xx142          C  0.6666300  0.8702300  0.7701800    0.00000       Uiso       1.00
     xx143          C  0.6965299  0.8439200  0.7238900    0.00000       Uiso       1.00
     xx144          C  0.8983600  0.7743301  0.4291000    0.00000       Uiso       1.00
     xx145          C  0.8434700  0.7752200  0.3940900    0.00000       Uiso       1.00
     xx146          C  0.8239300  0.7620301  0.5731500    0.00000       Uiso       1.00
     xx147          C  0.8601900  0.7478201  0.7861700    0.00000       Uiso       1.00
     xx148          C  0.9150200  0.7468900  0.8202800    0.00000       Uiso       1.00
     xx149          H  0.6452500  0.8671900  0.9010900    0.00000       Uiso       1.00
     xx150          H  0.9131300  0.7844500  0.2902400    0.00000       Uiso       1.00
     xx151          H  0.8163200  0.7855999  0.2248900    0.00000       Uiso       1.00
     xx152          H  0.9426699  0.7358499  0.9849900    0.00000       Uiso       1.00
     xx153          C  0.5500400  0.9664100  0.5757400    0.00000       Uiso       1.00
     xx154          C  0.5817300  0.9654000  0.4213900    0.00000       Uiso       1.00
     xx155          C  0.6215700  0.9432899  0.4594800    0.00000       Uiso       1.00
     xx156          C  0.6282500  0.9206900  0.6428200    0.00000       Uiso       1.00
     xx157          C  0.5979800  0.9225200  0.8055999    0.00000       Uiso       1.00
     xx158          C  0.5592700  0.9451800  0.7714600    0.00000       Uiso       1.00
     xx159          C  0.9341200  0.7602001  0.6421500    0.00000       Uiso       1.00
     xx160          C  0.7234800  0.8450599  0.5479300    0.00000       Uiso       1.00
     xx161          C  0.7473600  0.8189000  0.4926500    0.00000       Uiso       1.00
     xx162          C  0.7441700  0.7911200  0.6096100    0.00000       Uiso       1.00
     xx163          C  0.7199900  0.7905799  0.7956900    0.00000       Uiso       1.00
     xx164          C  0.6955200  0.8165300  0.8488100    0.00000       Uiso       1.00
     xx165          H  0.6449200  0.9426300  0.3349100    0.00000       Uiso       1.00
     xx166          H  0.6022400  0.9061600  0.9537800    0.00000       Uiso       1.00
     xx167          H  0.5343700  0.9451800  0.8892900    0.00000       Uiso       1.00
     xx168          H  0.7250500  0.8659100  0.4487300    0.00000       Uiso       1.00
     xx169          H  0.7667700  0.8203500  0.3528000    0.00000       Uiso       1.00
     xx170          H  0.6750200  0.8151200  0.9852000    0.00000       Uiso       1.00
     xx171          C  0.7343200  0.7373499  0.4622200    0.00000       Uiso       1.00
     xx172          H  0.8461500  0.2625000  0.9258700    0.00000       Uiso       1.00
     xx173          H  0.7804400  0.2699000  0.1023100    0.00000       Uiso       1.00
     xx174          H  0.9765700  0.2404900  0.6688500    0.00000       Uiso       1.00
     xx175          H  0.4251600  0.0172100  0.7363900    0.00000       Uiso       1.00
     xx176          N  0.1618400  0.3950800  0.6395400    0.00000       Uiso       1.00
     xx177          C  0.1666300  0.3702300  0.7701800    0.00000       Uiso       1.00
     xx178          C  0.1965300  0.3439200  0.7238900    0.00000       Uiso       1.00
     xx179          C  0.3983600  0.2743300  0.4291000    0.00000       Uiso       1.00
     xx180          C  0.3434700  0.2752200  0.3940900    0.00000       Uiso       1.00
     xx181          C  0.3239300  0.2620300  0.5731500    0.00000       Uiso       1.00
     xx182          C  0.3601900  0.2478200  0.7861700    0.00000       Uiso       1.00
     xx183          C  0.4150200  0.2468900  0.8202800    0.00000       Uiso       1.00
     xx184          H  0.1452500  0.3671900  0.9010900    0.00000       Uiso       1.00
     xx185          H  0.4131300  0.2844500  0.2902400    0.00000       Uiso       1.00
     xx186          H  0.3163200  0.2856000  0.2248900    0.00000       Uiso       1.00
     xx187          H  0.4426700  0.2358500  0.9849900    0.00000       Uiso       1.00
     xx188          C  0.0500400  0.4664100  0.5757400    0.00000       Uiso       1.00
     xx189          C  0.0817300  0.4654000  0.4213900    0.00000       Uiso       1.00
     xx190          C  0.1215700  0.4432900  0.4594800    0.00000       Uiso       1.00
     xx191          C  0.1282500  0.4206900  0.6428200    0.00000       Uiso       1.00
     xx192          C  0.0979800  0.4225200  0.8055999    0.00000       Uiso       1.00
     xx193          C  0.0592700  0.4451800  0.7714600    0.00000       Uiso       1.00
     xx194          C  0.4341200  0.2602000  0.6421500    0.00000       Uiso       1.00
     xx195          C  0.2234800  0.3450600  0.5479300    0.00000       Uiso       1.00
     xx196          C  0.2473600  0.3189000  0.4926500    0.00000       Uiso       1.00
     xx197          C  0.2441700  0.2911200  0.6096100    0.00000       Uiso       1.00
     xx198          C  0.2199900  0.2905800  0.7956900    0.00000       Uiso       1.00
     xx199          C  0.1955200  0.3165300  0.8488100    0.00000       Uiso       1.00
     xx200          H  0.1449200  0.4426300  0.3349100    0.00000       Uiso       1.00
     xx201          H  0.1022400  0.4061600  0.9537800    0.00000       Uiso       1.00
     xx202          H  0.0343700  0.4451800  0.8892900    0.00000       Uiso       1.00
     xx203          H  0.2250500  0.3659100  0.4487300    0.00000       Uiso       1.00
     xx204          H  0.2667700  0.3203500  0.3528000    0.00000       Uiso       1.00
     xx205          H  0.1750200  0.3151200  0.9852000    0.00000       Uiso       1.00
     xx206          C  0.2343200  0.2373500  0.4622200    0.00000       Uiso       1.00
     xx207          H  0.3461500  0.7625000  0.9258700    0.00000       Uiso       1.00
     xx208          H  0.2804400  0.7699000  0.1023100    0.00000       Uiso       1.00
     xx209          H  0.4765700  0.7404900  0.6688500    0.00000       Uiso       1.00
     xx210          H  0.9251600  0.5172100  0.7363900    0.00000       Uiso       1.00
     xx211          N  0.3381600  0.8950799  0.3604600    0.00000       Uiso       1.00
     xx212          C  0.3333700  0.8702300  0.2298200    0.00000       Uiso       1.00
     xx213          C  0.3034700  0.8439200  0.2761100    0.00000       Uiso       1.00
     xx214          C  0.1016400  0.7743301  0.5709000    0.00000       Uiso       1.00
     xx215          C  0.1565300  0.7752200  0.6059100    0.00000       Uiso       1.00
     xx216          C  0.1760700  0.7620301  0.4268500    0.00000       Uiso       1.00
     xx217          C  0.1398100  0.7478201  0.2138300    0.00000       Uiso       1.00
     xx218          C  0.0849800  0.7468900  0.1797200    0.00000       Uiso       1.00
     xx219          H  0.3547500  0.8671900  0.0989100    0.00000       Uiso       1.00
     xx220          H  0.0868700  0.7844500  0.7097600    0.00000       Uiso       1.00
     xx221          H  0.1836800  0.7855999  0.7751100    0.00000       Uiso       1.00
     xx222          H  0.0573300  0.7358499  0.0150100    0.00000       Uiso       1.00
     xx223          C  0.4499600  0.9664100  0.4242600    0.00000       Uiso       1.00
     xx224          C  0.4182700  0.9654000  0.5786100    0.00000       Uiso       1.00
     xx225          C  0.3784300  0.9432899  0.5405200    0.00000       Uiso       1.00
     xx226          C  0.3717500  0.9206900  0.3571800    0.00000       Uiso       1.00
     xx227          C  0.4020200  0.9225200  0.1944000    0.00000       Uiso       1.00
     xx228          C  0.4407300  0.9451800  0.2285400    0.00000       Uiso       1.00
     xx229          C  0.0658800  0.7602001  0.3578500    0.00000       Uiso       1.00
     xx230          C  0.2765200  0.8450599  0.4520700    0.00000       Uiso       1.00
     xx231          C  0.2526400  0.8189000  0.5073500    0.00000       Uiso       1.00
     xx232          C  0.2558300  0.7911200  0.3903900    0.00000       Uiso       1.00
     xx233          C  0.2800100  0.7905799  0.2043100    0.00000       Uiso       1.00
     xx234          C  0.3044800  0.8165300  0.1511900    0.00000       Uiso       1.00
     xx235          H  0.3550800  0.9426300  0.6650900    0.00000       Uiso       1.00
     xx236          H  0.3977600  0.9061600  0.0462200    0.00000       Uiso       1.00
     xx237          H  0.4656300  0.9451800  0.1107100    0.00000       Uiso       1.00
     xx238          H  0.2749500  0.8659100  0.5512700    0.00000       Uiso       1.00
     xx239          H  0.2332300  0.8203500  0.6472000    0.00000       Uiso       1.00
     xx240          H  0.3249800  0.8151200  0.0148000    0.00000       Uiso       1.00
     xx241          C  0.2656800  0.7373499  0.5377800    0.00000       Uiso       1.00
     xx242          H  0.1538500  0.2625000  0.0741300    0.00000       Uiso       1.00
     xx243          H  0.2195600  0.2699000  0.8976901    0.00000       Uiso       1.00
     xx244          H  0.0234300  0.2404900  0.3311500    0.00000       Uiso       1.00
     xx245          H  0.5748400  0.0172100  0.2636100    0.00000       Uiso       1.00
     xx246          N  0.8381600  0.3950800  0.3604600    0.00000       Uiso       1.00
     xx247          C  0.8333700  0.3702300  0.2298200    0.00000       Uiso       1.00
     xx248          C  0.8034700  0.3439200  0.2761100    0.00000       Uiso       1.00
     xx249          C  0.6016400  0.2743300  0.5709000    0.00000       Uiso       1.00
     xx250          C  0.6565301  0.2752200  0.6059100    0.00000       Uiso       1.00
     xx251          C  0.6760700  0.2620300  0.4268500    0.00000       Uiso       1.00
     xx252          C  0.6398100  0.2478200  0.2138300    0.00000       Uiso       1.00
     xx253          C  0.5849800  0.2468900  0.1797200    0.00000       Uiso       1.00
     xx254          H  0.8547500  0.3671900  0.0989100    0.00000       Uiso       1.00
     xx255          H  0.5868700  0.2844500  0.7097600    0.00000       Uiso       1.00
     xx256          H  0.6836800  0.2856000  0.7751100    0.00000       Uiso       1.00
     xx257          H  0.5573300  0.2358500  0.0150100    0.00000       Uiso       1.00
     xx258          C  0.9499600  0.4664100  0.4242600    0.00000       Uiso       1.00
     xx259          C  0.9182701  0.4654000  0.5786100    0.00000       Uiso       1.00
     xx260          C  0.8784300  0.4432900  0.5405200    0.00000       Uiso       1.00
     xx261          C  0.8717500  0.4206900  0.3571800    0.00000       Uiso       1.00
     xx262          C  0.9020200  0.4225200  0.1944000    0.00000       Uiso       1.00
     xx263          C  0.9407300  0.4451800  0.2285400    0.00000       Uiso       1.00
     xx264          C  0.5658800  0.2602000  0.3578500    0.00000       Uiso       1.00
     xx265          C  0.7765200  0.3450600  0.4520700    0.00000       Uiso       1.00
     xx266          C  0.7526400  0.3189000  0.5073500    0.00000       Uiso       1.00
     xx267          C  0.7558300  0.2911200  0.3903900    0.00000       Uiso       1.00
     xx268          C  0.7800099  0.2905800  0.2043100    0.00000       Uiso       1.00
     xx269          C  0.8044800  0.3165300  0.1511900    0.00000       Uiso       1.00
     xx270          H  0.8550800  0.4426300  0.6650900    0.00000       Uiso       1.00
     xx271          H  0.8977600  0.4061600  0.0462200    0.00000       Uiso       1.00
     xx272          H  0.9656300  0.4451800  0.1107100    0.00000       Uiso       1.00
     xx273          H  0.7749500  0.3659100  0.5512700    0.00000       Uiso       1.00
     xx274          H  0.7332300  0.3203500  0.6472000    0.00000       Uiso       1.00
     xx275          H  0.8249800  0.3151200  0.0148000    0.00000       Uiso       1.00
     xx276          C  0.7656800  0.2373500  0.5377800    0.00000       Uiso       1.00
     xx277          H  0.6538500  0.7625000  0.0741300    0.00000       Uiso       1.00
     xx278          H  0.7195600  0.7699000  0.8976901    0.00000       Uiso       1.00
     xx279          H  0.5234300  0.7404900  0.3311500    0.00000       Uiso       1.00
     xx280          H  0.0748400  0.5172100  0.2636100    0.00000       Uiso       1.00
     xx281          C  0.0000000  0.4846100  0.5000000    0.00000       Uiso       1.00
     xx282          C  0.5000000  0.9846100  0.5000000    0.00000       Uiso       1.00
     xx283          C  0.0000000  0.5153900  0.5000000    0.00000       Uiso       1.00
     xx284          C  0.5000000  0.0153900  0.5000000    0.00000       Uiso       1.00
