data_TPE-COF_IV
_audit_creation_date              0000-00-00
_audit_creation_method            'LanYouShi'
_symmetry_space_group_name_H-M    'P1'
_cell_length_a                    31.8034992
_cell_length_b                    40.7388992
_cell_length_c                    5.8313999
_cell_angle_alpha                 90.0000000
_cell_angle_beta                  92.9766006
_cell_angle_gamma                 90.0000000
loop_
_atom_site_label
_atom_site_type_symbol
_atom_site_fract_x
_atom_site_fract_y
_atom_site_fract_z
_atom_site_U_iso_or_equiv
_atom_site_adp_type
_atom_site_occupancy
       xx1          N  0.3611800  0.1060500  0.4502300    0.00000       Uiso       1.00
       xx2          C  0.3500900  0.1270000  0.2902800    0.00000       Uiso       1.00
       xx3          C  0.3189900  0.1528500  0.3344700    0.00000       Uiso       1.00
       xx4          C  0.1355100  0.2148500  0.7324001    0.00000       Uiso       1.00
       xx5          C  0.1789500  0.2176800  0.7116100    0.00000       Uiso       1.00
       xx6          C  0.1948300  0.2309300  0.5114200    0.00000       Uiso       1.00
       xx7          C  0.1666900  0.2416000  0.3336900    0.00000       Uiso       1.00
       xx8          C  0.1232600  0.2388800  0.3549300    0.00000       Uiso       1.00
       xx9          C  0.4607600  0.0362300  0.4727200    0.00000       Uiso       1.00
      xx10          C  0.4341700  0.0397800  0.6553600    0.00000       Uiso       1.00
      xx11          C  0.4003600  0.0616500  0.6390200    0.00000       Uiso       1.00
      xx12          C  0.4203800  0.0781300  0.2614200    0.00000       Uiso       1.00
      xx13          C  0.4536400  0.0556700  0.2762900    0.00000       Uiso       1.00
      xx14          C  0.1074600  0.2254500  0.5542800    0.00000       Uiso       1.00
      xx15          C  0.2980400  0.1536800  0.5409300    0.00000       Uiso       1.00
      xx16          C  0.2714400  0.1798200  0.5881700    0.00000       Uiso       1.00
      xx17          C  0.2653700  0.2055600  0.4305700    0.00000       Uiso       1.00
      xx18          C  0.2846300  0.2039700  0.2198400    0.00000       Uiso       1.00
      xx19          C  0.3116100  0.1780100  0.1731700    0.00000       Uiso       1.00
      xx20          C  0.2592400  0.2650300  0.5098000    0.00000       Uiso       1.00
      xx21          N  0.0630200  0.7772400  0.5763800    0.00000       Uiso       1.00
      xx22          H  0.3648000  0.1271000  0.1273700    0.00000       Uiso       1.00
      xx23          H  0.1237100  0.2046100  0.8878400    0.00000       Uiso       1.00
      xx24          H  0.1999900  0.2102700  0.8539200    0.00000       Uiso       1.00
      xx25          H  0.1783700  0.2522500  0.1796100    0.00000       Uiso       1.00
      xx26          H  0.1019600  0.2473100  0.2164200    0.00000       Uiso       1.00
      xx27          H  0.4406600  0.0269100  0.8148800    0.00000       Uiso       1.00
      xx28          H  0.3804000  0.0642500  0.7827700    0.00000       Uiso       1.00
      xx29          H  0.4171200  0.0933700  0.1102700    0.00000       Uiso       1.00
      xx30          H  0.4749400  0.0543500  0.1382800    0.00000       Uiso       1.00
      xx31          H  0.3029900  0.1345800  0.6686800    0.00000       Uiso       1.00
      xx32          H  0.2568500  0.1803600  0.7511500    0.00000       Uiso       1.00
      xx33          H  0.2794300  0.2232900  0.0942500    0.00000       Uiso       1.00
      xx34          H  0.3275100  0.1779800  0.0134300    0.00000       Uiso       1.00
      xx35          H  0.4490700  0.7129800  0.2751100    0.00000       Uiso       1.00
      xx36          H  0.4581200  0.7305600  0.5555000    0.00000       Uiso       1.00
      xx37          C  0.3934600  0.0814100  0.4444500    0.00000       Uiso       1.00
      xx38          N  0.8611800  0.6060500  0.4502300    0.00000       Uiso       1.00
      xx39          C  0.8500900  0.6270000  0.2902800    0.00000       Uiso       1.00
      xx40          C  0.8189900  0.6528500  0.3344700    0.00000       Uiso       1.00
      xx41          C  0.6355100  0.7148500  0.7324001    0.00000       Uiso       1.00
      xx42          C  0.6789500  0.7176800  0.7116100    0.00000       Uiso       1.00
      xx43          C  0.6948300  0.7309300  0.5114200    0.00000       Uiso       1.00
      xx44          C  0.6666900  0.7416000  0.3336900    0.00000       Uiso       1.00
      xx45          C  0.6232600  0.7388800  0.3549300    0.00000       Uiso       1.00
      xx46          C  0.9607600  0.5362300  0.4727200    0.00000       Uiso       1.00
      xx47          C  0.9341700  0.5397800  0.6553600    0.00000       Uiso       1.00
      xx48          C  0.9003600  0.5616500  0.6390200    0.00000       Uiso       1.00
      xx49          C  0.9203800  0.5781300  0.2614200    0.00000       Uiso       1.00
      xx50          C  0.9536400  0.5556700  0.2762900    0.00000       Uiso       1.00
      xx51          C  0.6074600  0.7254500  0.5542800    0.00000       Uiso       1.00
      xx52          C  0.7980400  0.6536800  0.5409300    0.00000       Uiso       1.00
      xx53          C  0.7714400  0.6798200  0.5881700    0.00000       Uiso       1.00
      xx54          C  0.7653700  0.7055600  0.4305700    0.00000       Uiso       1.00
      xx55          C  0.7846300  0.7039700  0.2198400    0.00000       Uiso       1.00
      xx56          C  0.8116100  0.6780100  0.1731700    0.00000       Uiso       1.00
      xx57          C  0.7592400  0.7650300  0.5098000    0.00000       Uiso       1.00
      xx58          N  0.5630200  0.2772400  0.5763800    0.00000       Uiso       1.00
      xx59          H  0.8648000  0.6271000  0.1273700    0.00000       Uiso       1.00
      xx60          H  0.6237100  0.7046100  0.8878400    0.00000       Uiso       1.00
      xx61          H  0.6999900  0.7102700  0.8539200    0.00000       Uiso       1.00
      xx62          H  0.6783700  0.7522500  0.1796100    0.00000       Uiso       1.00
      xx63          H  0.6019600  0.7473100  0.2164200    0.00000       Uiso       1.00
      xx64          H  0.9406600  0.5269100  0.8148800    0.00000       Uiso       1.00
      xx65          H  0.8804000  0.5642500  0.7827700    0.00000       Uiso       1.00
      xx66          H  0.9171200  0.5933700  0.1102700    0.00000       Uiso       1.00
      xx67          H  0.9749400  0.5543500  0.1382800    0.00000       Uiso       1.00
      xx68          H  0.8029900  0.6345800  0.6686800    0.00000       Uiso       1.00
      xx69          H  0.7568500  0.6803600  0.7511500    0.00000       Uiso       1.00
      xx70          H  0.7794300  0.7232900  0.0942500    0.00000       Uiso       1.00
      xx71          H  0.8275100  0.6779800  0.0134300    0.00000       Uiso       1.00
      xx72          H  0.9490700  0.2129800  0.2751100    0.00000       Uiso       1.00
      xx73          H  0.9581200  0.2305600  0.5555000    0.00000       Uiso       1.00
      xx74          C  0.8934600  0.5814100  0.4444500    0.00000       Uiso       1.00
      xx75          N  0.6388200  0.1060500  0.5497700    0.00000       Uiso       1.00
      xx76          C  0.6499100  0.1270000  0.7097200    0.00000       Uiso       1.00
      xx77          C  0.6810100  0.1528500  0.6655300    0.00000       Uiso       1.00
      xx78          C  0.8644900  0.2148500  0.2676000    0.00000       Uiso       1.00
      xx79          C  0.8210500  0.2176800  0.2883900    0.00000       Uiso       1.00
      xx80          C  0.8051700  0.2309300  0.4885800    0.00000       Uiso       1.00
      xx81          C  0.8333099  0.2416000  0.6663100    0.00000       Uiso       1.00
      xx82          C  0.8767400  0.2388800  0.6450700    0.00000       Uiso       1.00
      xx83          C  0.5392400  0.0362300  0.5272800    0.00000       Uiso       1.00
      xx84          C  0.5658300  0.0397800  0.3446400    0.00000       Uiso       1.00
      xx85          C  0.5996400  0.0616500  0.3609800    0.00000       Uiso       1.00
      xx86          C  0.5796200  0.0781300  0.7385800    0.00000       Uiso       1.00
      xx87          C  0.5463600  0.0556700  0.7237100    0.00000       Uiso       1.00
      xx88          C  0.8925400  0.2254500  0.4457200    0.00000       Uiso       1.00
      xx89          C  0.7019600  0.1536800  0.4590700    0.00000       Uiso       1.00
      xx90          C  0.7285600  0.1798200  0.4118300    0.00000       Uiso       1.00
      xx91          C  0.7346300  0.2055600  0.5694300    0.00000       Uiso       1.00
      xx92          C  0.7153700  0.2039700  0.7801601    0.00000       Uiso       1.00
      xx93          C  0.6883900  0.1780100  0.8268300    0.00000       Uiso       1.00
      xx94          C  0.7407600  0.2650300  0.4902000    0.00000       Uiso       1.00
      xx95          N  0.9369800  0.7772400  0.4236200    0.00000       Uiso       1.00
      xx96          H  0.6352000  0.1271000  0.8726300    0.00000       Uiso       1.00
      xx97          H  0.8762900  0.2046100  0.1121600    0.00000       Uiso       1.00
      xx98          H  0.8000100  0.2102700  0.1460800    0.00000       Uiso       1.00
      xx99          H  0.8216300  0.2522500  0.8203899    0.00000       Uiso       1.00
     xx100          H  0.8980400  0.2473100  0.7835800    0.00000       Uiso       1.00
     xx101          H  0.5593400  0.0269100  0.1851200    0.00000       Uiso       1.00
     xx102          H  0.6196000  0.0642500  0.2172300    0.00000       Uiso       1.00
     xx103          H  0.5828800  0.0933700  0.8897300    0.00000       Uiso       1.00
     xx104          H  0.5250600  0.0543500  0.8617200    0.00000       Uiso       1.00
     xx105          H  0.6970100  0.1345800  0.3313200    0.00000       Uiso       1.00
     xx106          H  0.7431500  0.1803600  0.2488500    0.00000       Uiso       1.00
     xx107          H  0.7205700  0.2232900  0.9057500    0.00000       Uiso       1.00
     xx108          H  0.6724900  0.1779800  0.9865700    0.00000       Uiso       1.00
     xx109          H  0.5509300  0.7129800  0.7248900    0.00000       Uiso       1.00
     xx110          H  0.5418800  0.7305600  0.4445000    0.00000       Uiso       1.00
     xx111          C  0.6065400  0.0814100  0.5555500    0.00000       Uiso       1.00
     xx112          N  0.1388200  0.6060500  0.5497700    0.00000       Uiso       1.00
     xx113          C  0.1499100  0.6270000  0.7097200    0.00000       Uiso       1.00
     xx114          C  0.1810100  0.6528500  0.6655300    0.00000       Uiso       1.00
     xx115          C  0.3644900  0.7148500  0.2676000    0.00000       Uiso       1.00
     xx116          C  0.3210500  0.7176800  0.2883900    0.00000       Uiso       1.00
     xx117          C  0.3051700  0.7309300  0.4885800    0.00000       Uiso       1.00
     xx118          C  0.3333100  0.7416000  0.6663100    0.00000       Uiso       1.00
     xx119          C  0.3767400  0.7388800  0.6450700    0.00000       Uiso       1.00
     xx120          C  0.0392400  0.5362300  0.5272800    0.00000       Uiso       1.00
     xx121          C  0.0658300  0.5397800  0.3446400    0.00000       Uiso       1.00
     xx122          C  0.0996400  0.5616500  0.3609800    0.00000       Uiso       1.00
     xx123          C  0.0796200  0.5781300  0.7385800    0.00000       Uiso       1.00
     xx124          C  0.0463600  0.5556700  0.7237100    0.00000       Uiso       1.00
     xx125          C  0.3925400  0.7254500  0.4457200    0.00000       Uiso       1.00
     xx126          C  0.2019600  0.6536800  0.4590700    0.00000       Uiso       1.00
     xx127          C  0.2285600  0.6798200  0.4118300    0.00000       Uiso       1.00
     xx128          C  0.2346300  0.7055600  0.5694300    0.00000       Uiso       1.00
     xx129          C  0.2153700  0.7039700  0.7801601    0.00000       Uiso       1.00
     xx130          C  0.1883900  0.6780100  0.8268300    0.00000       Uiso       1.00
     xx131          C  0.2407600  0.7650300  0.4902000    0.00000       Uiso       1.00
     xx132          N  0.4369800  0.2772400  0.4236200    0.00000       Uiso       1.00
     xx133          H  0.1352000  0.6271000  0.8726300    0.00000       Uiso       1.00
     xx134          H  0.3762900  0.7046100  0.1121600    0.00000       Uiso       1.00
     xx135          H  0.3000100  0.7102700  0.1460800    0.00000       Uiso       1.00
     xx136          H  0.3216300  0.7522500  0.8203899    0.00000       Uiso       1.00
     xx137          H  0.3980400  0.7473100  0.7835800    0.00000       Uiso       1.00
     xx138          H  0.0593400  0.5269100  0.1851200    0.00000       Uiso       1.00
     xx139          H  0.1196000  0.5642500  0.2172300    0.00000       Uiso       1.00
     xx140          H  0.0828800  0.5933700  0.8897300    0.00000       Uiso       1.00
     xx141          H  0.0250600  0.5543500  0.8617200    0.00000       Uiso       1.00
     xx142          H  0.1970100  0.6345800  0.3313200    0.00000       Uiso       1.00
     xx143          H  0.2431500  0.6803600  0.2488500    0.00000       Uiso       1.00
     xx144          H  0.2205700  0.7232900  0.9057500    0.00000       Uiso       1.00
     xx145          H  0.1724900  0.6779800  0.9865700    0.00000       Uiso       1.00
     xx146          H  0.0509300  0.2129800  0.7248900    0.00000       Uiso       1.00
     xx147          H  0.0418800  0.2305600  0.4445000    0.00000       Uiso       1.00
     xx148          C  0.1065400  0.5814100  0.5555500    0.00000       Uiso       1.00
     xx149          N  0.6388200  0.8939499  0.5497700    0.00000       Uiso       1.00
     xx150          C  0.6499100  0.8730000  0.7097200    0.00000       Uiso       1.00
     xx151          C  0.6810100  0.8471500  0.6655300    0.00000       Uiso       1.00
     xx152          C  0.8644900  0.7851500  0.2676000    0.00000       Uiso       1.00
     xx153          C  0.8210500  0.7823200  0.2883900    0.00000       Uiso       1.00
     xx154          C  0.8051700  0.7690700  0.4885800    0.00000       Uiso       1.00
     xx155          C  0.8333099  0.7584000  0.6663100    0.00000       Uiso       1.00
     xx156          C  0.8767400  0.7611200  0.6450700    0.00000       Uiso       1.00
     xx157          C  0.5392400  0.9637700  0.5272800    0.00000       Uiso       1.00
     xx158          C  0.5658300  0.9602200  0.3446400    0.00000       Uiso       1.00
     xx159          C  0.5996400  0.9383501  0.3609800    0.00000       Uiso       1.00
     xx160          C  0.5796200  0.9218700  0.7385800    0.00000       Uiso       1.00
     xx161          C  0.5463600  0.9443299  0.7237100    0.00000       Uiso       1.00
     xx162          C  0.8925400  0.7745500  0.4457200    0.00000       Uiso       1.00
     xx163          C  0.7019600  0.8463200  0.4590700    0.00000       Uiso       1.00
     xx164          C  0.7285600  0.8201800  0.4118300    0.00000       Uiso       1.00
     xx165          C  0.7346300  0.7944400  0.5694300    0.00000       Uiso       1.00
     xx166          C  0.7153700  0.7960300  0.7801601    0.00000       Uiso       1.00
     xx167          C  0.6883900  0.8219900  0.8268300    0.00000       Uiso       1.00
     xx168          C  0.7407600  0.7349700  0.4902000    0.00000       Uiso       1.00
     xx169          N  0.9369800  0.2227600  0.4236200    0.00000       Uiso       1.00
     xx170          H  0.6352000  0.8729000  0.8726300    0.00000       Uiso       1.00
     xx171          H  0.8762900  0.7953900  0.1121600    0.00000       Uiso       1.00
     xx172          H  0.8000100  0.7897300  0.1460800    0.00000       Uiso       1.00
     xx173          H  0.8216300  0.7477500  0.8203899    0.00000       Uiso       1.00
     xx174          H  0.8980400  0.7526900  0.7835800    0.00000       Uiso       1.00
     xx175          H  0.5593400  0.9730900  0.1851200    0.00000       Uiso       1.00
     xx176          H  0.6196000  0.9357500  0.2172300    0.00000       Uiso       1.00
     xx177          H  0.5828800  0.9066300  0.8897300    0.00000       Uiso       1.00
     xx178          H  0.5250600  0.9456500  0.8617200    0.00000       Uiso       1.00
     xx179          H  0.6970100  0.8654199  0.3313200    0.00000       Uiso       1.00
     xx180          H  0.7431500  0.8196400  0.2488500    0.00000       Uiso       1.00
     xx181          H  0.7205700  0.7767100  0.9057500    0.00000       Uiso       1.00
     xx182          H  0.6724900  0.8220200  0.9865700    0.00000       Uiso       1.00
     xx183          H  0.5509300  0.2870200  0.7248900    0.00000       Uiso       1.00
     xx184          H  0.5418800  0.2694400  0.4445000    0.00000       Uiso       1.00
     xx185          C  0.6065400  0.9185899  0.5555500    0.00000       Uiso       1.00
     xx186          N  0.1388200  0.3939500  0.5497700    0.00000       Uiso       1.00
     xx187          C  0.1499100  0.3730000  0.7097200    0.00000       Uiso       1.00
     xx188          C  0.1810100  0.3471500  0.6655300    0.00000       Uiso       1.00
     xx189          C  0.3644900  0.2851500  0.2676000    0.00000       Uiso       1.00
     xx190          C  0.3210500  0.2823200  0.2883900    0.00000       Uiso       1.00
     xx191          C  0.3051700  0.2690700  0.4885800    0.00000       Uiso       1.00
     xx192          C  0.3333100  0.2584000  0.6663100    0.00000       Uiso       1.00
     xx193          C  0.3767400  0.2611200  0.6450700    0.00000       Uiso       1.00
     xx194          C  0.0392400  0.4637700  0.5272800    0.00000       Uiso       1.00
     xx195          C  0.0658300  0.4602200  0.3446400    0.00000       Uiso       1.00
     xx196          C  0.0996400  0.4383500  0.3609800    0.00000       Uiso       1.00
     xx197          C  0.0796200  0.4218700  0.7385800    0.00000       Uiso       1.00
     xx198          C  0.0463600  0.4443300  0.7237100    0.00000       Uiso       1.00
     xx199          C  0.3925400  0.2745500  0.4457200    0.00000       Uiso       1.00
     xx200          C  0.2019600  0.3463200  0.4590700    0.00000       Uiso       1.00
     xx201          C  0.2285600  0.3201800  0.4118300    0.00000       Uiso       1.00
     xx202          C  0.2346300  0.2944400  0.5694300    0.00000       Uiso       1.00
     xx203          C  0.2153700  0.2960300  0.7801601    0.00000       Uiso       1.00
     xx204          C  0.1883900  0.3219900  0.8268300    0.00000       Uiso       1.00
     xx205          C  0.2407600  0.2349700  0.4902000    0.00000       Uiso       1.00
     xx206          N  0.4369800  0.7227600  0.4236200    0.00000       Uiso       1.00
     xx207          H  0.1352000  0.3729000  0.8726300    0.00000       Uiso       1.00
     xx208          H  0.3762900  0.2953900  0.1121600    0.00000       Uiso       1.00
     xx209          H  0.3000100  0.2897300  0.1460800    0.00000       Uiso       1.00
     xx210          H  0.3216300  0.2477500  0.8203899    0.00000       Uiso       1.00
     xx211          H  0.3980400  0.2526900  0.7835800    0.00000       Uiso       1.00
     xx212          H  0.0593400  0.4730900  0.1851200    0.00000       Uiso       1.00
     xx213          H  0.1196000  0.4357500  0.2172300    0.00000       Uiso       1.00
     xx214          H  0.0828800  0.4066300  0.8897300    0.00000       Uiso       1.00
     xx215          H  0.0250600  0.4456500  0.8617200    0.00000       Uiso       1.00
     xx216          H  0.1970100  0.3654200  0.3313200    0.00000       Uiso       1.00
     xx217          H  0.2431500  0.3196400  0.2488500    0.00000       Uiso       1.00
     xx218          H  0.2205700  0.2767100  0.9057500    0.00000       Uiso       1.00
     xx219          H  0.1724900  0.3220200  0.9865700    0.00000       Uiso       1.00
     xx220          H  0.0509300  0.7870200  0.7248900    0.00000       Uiso       1.00
     xx221          H  0.0418800  0.7694400  0.4445000    0.00000       Uiso       1.00
     xx222          C  0.1065400  0.4185900  0.5555500    0.00000       Uiso       1.00
     xx223          N  0.3611800  0.8939499  0.4502300    0.00000       Uiso       1.00
     xx224          C  0.3500900  0.8730000  0.2902800    0.00000       Uiso       1.00
     xx225          C  0.3189900  0.8471500  0.3344700    0.00000       Uiso       1.00
     xx226          C  0.1355100  0.7851500  0.7324001    0.00000       Uiso       1.00
     xx227          C  0.1789500  0.7823200  0.7116100    0.00000       Uiso       1.00
     xx228          C  0.1948300  0.7690700  0.5114200    0.00000       Uiso       1.00
     xx229          C  0.1666900  0.7584000  0.3336900    0.00000       Uiso       1.00
     xx230          C  0.1232600  0.7611200  0.3549300    0.00000       Uiso       1.00
     xx231          C  0.4607600  0.9637700  0.4727200    0.00000       Uiso       1.00
     xx232          C  0.4341700  0.9602200  0.6553600    0.00000       Uiso       1.00
     xx233          C  0.4003600  0.9383501  0.6390200    0.00000       Uiso       1.00
     xx234          C  0.4203800  0.9218700  0.2614200    0.00000       Uiso       1.00
     xx235          C  0.4536400  0.9443299  0.2762900    0.00000       Uiso       1.00
     xx236          C  0.1074600  0.7745500  0.5542800    0.00000       Uiso       1.00
     xx237          C  0.2980400  0.8463200  0.5409300    0.00000       Uiso       1.00
     xx238          C  0.2714400  0.8201800  0.5881700    0.00000       Uiso       1.00
     xx239          C  0.2653700  0.7944400  0.4305700    0.00000       Uiso       1.00
     xx240          C  0.2846300  0.7960300  0.2198400    0.00000       Uiso       1.00
     xx241          C  0.3116100  0.8219900  0.1731700    0.00000       Uiso       1.00
     xx242          C  0.2592400  0.7349700  0.5098000    0.00000       Uiso       1.00
     xx243          N  0.0630200  0.2227600  0.5763800    0.00000       Uiso       1.00
     xx244          H  0.3648000  0.8729000  0.1273700    0.00000       Uiso       1.00
     xx245          H  0.1237100  0.7953900  0.8878400    0.00000       Uiso       1.00
     xx246          H  0.1999900  0.7897300  0.8539200    0.00000       Uiso       1.00
     xx247          H  0.1783700  0.7477500  0.1796100    0.00000       Uiso       1.00
     xx248          H  0.1019600  0.7526900  0.2164200    0.00000       Uiso       1.00
     xx249          H  0.4406600  0.9730900  0.8148800    0.00000       Uiso       1.00
     xx250          H  0.3804000  0.9357500  0.7827700    0.00000       Uiso       1.00
     xx251          H  0.4171200  0.9066300  0.1102700    0.00000       Uiso       1.00
     xx252          H  0.4749400  0.9456500  0.1382800    0.00000       Uiso       1.00
     xx253          H  0.3029900  0.8654199  0.6686800    0.00000       Uiso       1.00
     xx254          H  0.2568500  0.8196400  0.7511500    0.00000       Uiso       1.00
     xx255          H  0.2794300  0.7767100  0.0942500    0.00000       Uiso       1.00
     xx256          H  0.3275100  0.8220200  0.0134300    0.00000       Uiso       1.00
     xx257          H  0.4490700  0.2870200  0.2751100    0.00000       Uiso       1.00
     xx258          H  0.4581200  0.2694400  0.5555000    0.00000       Uiso       1.00
     xx259          C  0.3934600  0.9185899  0.4444500    0.00000       Uiso       1.00
     xx260          N  0.8611800  0.3939500  0.4502300    0.00000       Uiso       1.00
     xx261          C  0.8500900  0.3730000  0.2902800    0.00000       Uiso       1.00
     xx262          C  0.8189900  0.3471500  0.3344700    0.00000       Uiso       1.00
     xx263          C  0.6355100  0.2851500  0.7324001    0.00000       Uiso       1.00
     xx264          C  0.6789500  0.2823200  0.7116100    0.00000       Uiso       1.00
     xx265          C  0.6948300  0.2690700  0.5114200    0.00000       Uiso       1.00
     xx266          C  0.6666900  0.2584000  0.3336900    0.00000       Uiso       1.00
     xx267          C  0.6232600  0.2611200  0.3549300    0.00000       Uiso       1.00
     xx268          C  0.9607600  0.4637700  0.4727200    0.00000       Uiso       1.00
     xx269          C  0.9341700  0.4602200  0.6553600    0.00000       Uiso       1.00
     xx270          C  0.9003600  0.4383500  0.6390200    0.00000       Uiso       1.00
     xx271          C  0.9203800  0.4218700  0.2614200    0.00000       Uiso       1.00
     xx272          C  0.9536400  0.4443300  0.2762900    0.00000       Uiso       1.00
     xx273          C  0.6074600  0.2745500  0.5542800    0.00000       Uiso       1.00
     xx274          C  0.7980400  0.3463200  0.5409300    0.00000       Uiso       1.00
     xx275          C  0.7714400  0.3201800  0.5881700    0.00000       Uiso       1.00
     xx276          C  0.7653700  0.2944400  0.4305700    0.00000       Uiso       1.00
     xx277          C  0.7846300  0.2960300  0.2198400    0.00000       Uiso       1.00
     xx278          C  0.8116100  0.3219900  0.1731700    0.00000       Uiso       1.00
     xx279          C  0.7592400  0.2349700  0.5098000    0.00000       Uiso       1.00
     xx280          N  0.5630200  0.7227600  0.5763800    0.00000       Uiso       1.00
     xx281          H  0.8648000  0.3729000  0.1273700    0.00000       Uiso       1.00
     xx282          H  0.6237100  0.2953900  0.8878400    0.00000       Uiso       1.00
     xx283          H  0.6999900  0.2897300  0.8539200    0.00000       Uiso       1.00
     xx284          H  0.6783700  0.2477500  0.1796100    0.00000       Uiso       1.00
     xx285          H  0.6019600  0.2526900  0.2164200    0.00000       Uiso       1.00
     xx286          H  0.9406600  0.4730900  0.8148800    0.00000       Uiso       1.00
     xx287          H  0.8804000  0.4357500  0.7827700    0.00000       Uiso       1.00
     xx288          H  0.9171200  0.4066300  0.1102700    0.00000       Uiso       1.00
     xx289          H  0.9749400  0.4456500  0.1382800    0.00000       Uiso       1.00
     xx290          H  0.8029900  0.3654200  0.6686800    0.00000       Uiso       1.00
     xx291          H  0.7568500  0.3196400  0.7511500    0.00000       Uiso       1.00
     xx292          H  0.7794300  0.2767100  0.0942500    0.00000       Uiso       1.00
     xx293          H  0.8275100  0.3220200  0.0134300    0.00000       Uiso       1.00
     xx294          H  0.9490700  0.7870200  0.2751100    0.00000       Uiso       1.00
     xx295          H  0.9581200  0.7694400  0.5555000    0.00000       Uiso       1.00
     xx296          C  0.8934600  0.4185900  0.4444500    0.00000       Uiso       1.00
     xx297          C -0.0000000  0.4833100  0.5000000    0.00000       Uiso       1.00
     xx298          C  0.5000000  0.9833100  0.5000000    0.00000       Uiso       1.00
     xx299          C -0.0000000  0.5166900  0.5000000    0.00000       Uiso       1.00
     xx300          C  0.5000000  0.0166900  0.5000000    0.00000       Uiso       1.00
