data_TP-EDDA-COF
_audit_creation_date              0000-00-00
_audit_creation_method            'LanYouShi'
_symmetry_space_group_name_H-M    'P1'
_cell_length_a                    34.5996017
_cell_length_b                    34.5996017
_cell_length_c                    3.5778999
_cell_angle_alpha                 90.0000000
_cell_angle_beta                  90.0000000
_cell_angle_gamma                 120.0000000
loop_
_atom_site_label
_atom_site_type_symbol
_atom_site_fract_x
_atom_site_fract_y
_atom_site_fract_z
_atom_site_U_iso_or_equiv
_atom_site_adp_type
_atom_site_occupancy
       xx1          C  0.3031400  0.6849800  1.0000000    0.00000       Uiso       1.00
       xx2          C  0.3518000  0.7157300  1.0000000    0.00000       Uiso       1.00
       xx3          C  0.3668500  0.7593100  1.0000000    0.00000       Uiso       1.00
       xx4          C  0.5932800  0.4318900  1.0000000    0.00000       Uiso       1.00
       xx5          C  0.6103000  0.4763700  0.8463300    0.00000       Uiso       1.00
       xx6          C  0.5835800  0.4960900  0.8552101    0.00000       Uiso       1.00
       xx7          C  0.5393300  0.4715300  1.0000000    0.00000       Uiso       1.00
       xx8          C  0.5220700  0.4273800  1.0941900    0.00000       Uiso       1.00
       xx9          C  0.5488700  0.4077000  1.0892299    0.00000       Uiso       1.00
      xx10          C  0.5116100  0.4915900  1.0000000    0.00000       Uiso       1.00
      xx11          O  0.2795400  0.6996900  1.0000000    0.00000       Uiso       1.00
      xx12          N  0.4128000  0.7908700  1.0000000    0.00000       Uiso       1.00
      xx13          H  0.3426900  0.7703099  1.0000000    0.00000       Uiso       1.00
      xx14          H  0.4329400  0.7790300  1.0000000    0.00000       Uiso       1.00
      xx15          H  0.6443500  0.4957900  0.7479800    0.00000       Uiso       1.00
      xx16          H  0.5973000  0.5303300  0.7636600    0.00000       Uiso       1.00
      xx17          H  0.4879700  0.4082500  1.1927500    0.00000       Uiso       1.00
      xx18          H  0.5345800  0.3739300  1.1910501    0.00000       Uiso       1.00
      xx19          C  0.3150200  0.6181600  1.0000000    0.00000       Uiso       1.00
      xx20          C  0.2842700  0.6360700  1.0000000    0.00000       Uiso       1.00
      xx21          C  0.2406900  0.6075400  1.0000000    0.00000       Uiso       1.00
      xx22          C  0.5681100  0.1613900  1.0000000    0.00000       Uiso       1.00
      xx23          C  0.5236300  0.1339300  0.8463300    0.00000       Uiso       1.00
      xx24          C  0.5039100  0.0874900  0.8552101    0.00000       Uiso       1.00
      xx25          C  0.5284700  0.0678000  1.0000000    0.00000       Uiso       1.00
      xx26          C  0.5726200  0.0946900  1.0941900    0.00000       Uiso       1.00
      xx27          C  0.5923000  0.1411700  1.0892299    0.00000       Uiso       1.00
      xx28          C  0.5084100  0.0200200  1.0000000    0.00000       Uiso       1.00
      xx29          O  0.3003100  0.5798500  1.0000000    0.00000       Uiso       1.00
      xx30          N  0.2091300  0.6219300  1.0000000    0.00000       Uiso       1.00
      xx31          H  0.2296900  0.5723800  1.0000000    0.00000       Uiso       1.00
      xx32          H  0.2209700  0.6539100  1.0000000    0.00000       Uiso       1.00
      xx33          H  0.5042100  0.1485600  0.7479800    0.00000       Uiso       1.00
      xx34          H  0.4696700  0.0669700  0.7636600    0.00000       Uiso       1.00
      xx35          H  0.5917500  0.0797200  1.1927500    0.00000       Uiso       1.00
      xx36          H  0.6260700  0.1606500  1.1910501    0.00000       Uiso       1.00
      xx37          C  0.3818400  0.6968601  1.0000000    0.00000       Uiso       1.00
      xx38          C  0.3639300  0.6482000  1.0000000    0.00000       Uiso       1.00
      xx39          C  0.3924600  0.6331500  1.0000000    0.00000       Uiso       1.00
      xx40          C  0.8386100  0.4067200  1.0000000    0.00000       Uiso       1.00
      xx41          C  0.8660700  0.3897000  0.8463300    0.00000       Uiso       1.00
      xx42          C  0.9125100  0.4164200  0.8552101    0.00000       Uiso       1.00
      xx43          C  0.9322000  0.4606700  1.0000000    0.00000       Uiso       1.00
      xx44          C  0.9053100  0.4779300  1.0941900    0.00000       Uiso       1.00
      xx45          C  0.8588300  0.4511300  1.0892299    0.00000       Uiso       1.00
      xx46          C  0.9799800  0.4883900  1.0000000    0.00000       Uiso       1.00
      xx47          O  0.4201500  0.7204600  1.0000000    0.00000       Uiso       1.00
      xx48          N  0.3780700  0.5872000  1.0000000    0.00000       Uiso       1.00
      xx49          H  0.4276200  0.6573100  1.0000000    0.00000       Uiso       1.00
      xx50          H  0.3460900  0.5670600  1.0000000    0.00000       Uiso       1.00
      xx51          H  0.8514400  0.3556500  0.7479800    0.00000       Uiso       1.00
      xx52          H  0.9330300  0.4027000  0.7636600    0.00000       Uiso       1.00
      xx53          H  0.9202800  0.5120300  1.1927500    0.00000       Uiso       1.00
      xx54          H  0.8393500  0.4654200  1.1910501    0.00000       Uiso       1.00
      xx55          C  0.6968600  0.3150200  1.0000000    0.00000       Uiso       1.00
      xx56          C  0.6482000  0.2842700  1.0000000    0.00000       Uiso       1.00
      xx57          C  0.6331500  0.2406900  1.0000000    0.00000       Uiso       1.00
      xx58          C  0.4067200  0.5681100  1.0000000    0.00000       Uiso       1.00
      xx59          C  0.3897000  0.5236300  0.8463300    0.00000       Uiso       1.00
      xx60          C  0.4164200  0.5039100  0.8552101    0.00000       Uiso       1.00
      xx61          C  0.4606700  0.5284700  1.0000000    0.00000       Uiso       1.00
      xx62          C  0.4779300  0.5726200  1.0941900    0.00000       Uiso       1.00
      xx63          C  0.4511300  0.5923000  1.0892299    0.00000       Uiso       1.00
      xx64          C  0.4883900  0.5084100  1.0000000    0.00000       Uiso       1.00
      xx65          O  0.7204600  0.3003100  1.0000000    0.00000       Uiso       1.00
      xx66          N  0.5872000  0.2091300  1.0000000    0.00000       Uiso       1.00
      xx67          H  0.6573100  0.2296900  1.0000000    0.00000       Uiso       1.00
      xx68          H  0.5670600  0.2209700  1.0000000    0.00000       Uiso       1.00
      xx69          H  0.3556500  0.5042100  0.7479800    0.00000       Uiso       1.00
      xx70          H  0.4027000  0.4696700  0.7636600    0.00000       Uiso       1.00
      xx71          H  0.5120300  0.5917500  1.1927500    0.00000       Uiso       1.00
      xx72          H  0.4654200  0.6260700  1.1910501    0.00000       Uiso       1.00
      xx73          C  0.6849800  0.3818400  1.0000000    0.00000       Uiso       1.00
      xx74          C  0.7157300  0.3639300  1.0000000    0.00000       Uiso       1.00
      xx75          C  0.7593100  0.3924600  1.0000000    0.00000       Uiso       1.00
      xx76          C  0.4318900  0.8386100  1.0000000    0.00000       Uiso       1.00
      xx77          C  0.4763700  0.8660700  0.8463300    0.00000       Uiso       1.00
      xx78          C  0.4960900  0.9125100  0.8552101    0.00000       Uiso       1.00
      xx79          C  0.4715300  0.9322000  1.0000000    0.00000       Uiso       1.00
      xx80          C  0.4273800  0.9053100  1.0941900    0.00000       Uiso       1.00
      xx81          C  0.4077000  0.8588300  1.0892299    0.00000       Uiso       1.00
      xx82          C  0.4915900  0.9799800  1.0000000    0.00000       Uiso       1.00
      xx83          O  0.6996900  0.4201500  1.0000000    0.00000       Uiso       1.00
      xx84          N  0.7908700  0.3780700  1.0000000    0.00000       Uiso       1.00
      xx85          H  0.7703100  0.4276200  1.0000000    0.00000       Uiso       1.00
      xx86          H  0.7790300  0.3460900  1.0000000    0.00000       Uiso       1.00
      xx87          H  0.4957900  0.8514400  0.7479800    0.00000       Uiso       1.00
      xx88          H  0.5303300  0.9330300  0.7636600    0.00000       Uiso       1.00
      xx89          H  0.4082500  0.9202799  1.1927500    0.00000       Uiso       1.00
      xx90          H  0.3739300  0.8393500  1.1910501    0.00000       Uiso       1.00
      xx91          C  0.6181600  0.3031400  1.0000000    0.00000       Uiso       1.00
      xx92          C  0.6360700  0.3518000  1.0000000    0.00000       Uiso       1.00
      xx93          C  0.6075400  0.3668500  1.0000000    0.00000       Uiso       1.00
      xx94          C  0.1613900  0.5932800  1.0000000    0.00000       Uiso       1.00
      xx95          C  0.1339300  0.6103000  0.8463300    0.00000       Uiso       1.00
      xx96          C  0.0874900  0.5835800  0.8552101    0.00000       Uiso       1.00
      xx97          C  0.0678000  0.5393300  1.0000000    0.00000       Uiso       1.00
      xx98          C  0.0946900  0.5220700  1.0941900    0.00000       Uiso       1.00
      xx99          C  0.1411700  0.5488700  1.0892299    0.00000       Uiso       1.00
     xx100          C  0.0200200  0.5116100  1.0000000    0.00000       Uiso       1.00
     xx101          O  0.5798500  0.2795400  1.0000000    0.00000       Uiso       1.00
     xx102          N  0.6219300  0.4128000  1.0000000    0.00000       Uiso       1.00
     xx103          H  0.5723800  0.3426900  1.0000000    0.00000       Uiso       1.00
     xx104          H  0.6539100  0.4329400  1.0000000    0.00000       Uiso       1.00
     xx105          H  0.1485600  0.6443500  0.7479800    0.00000       Uiso       1.00
     xx106          H  0.0669700  0.5973000  0.7636600    0.00000       Uiso       1.00
     xx107          H  0.0797200  0.4879700  1.1927500    0.00000       Uiso       1.00
     xx108          H  0.1606500  0.5345800  1.1910501    0.00000       Uiso       1.00
