data_TPE-Ph_COF
_audit_creation_date              0000-00-00
_audit_creation_method            'LanYouShi'
_symmetry_space_group_name_H-M    'P1'
_cell_length_a                    37.5242004
_cell_length_b                    37.5242004
_cell_length_c                    6.2458000
_cell_angle_alpha                 90.0000000
_cell_angle_beta                  90.0000000
_cell_angle_gamma                 120.0000000
loop_
_atom_site_label
_atom_site_type_symbol
_atom_site_fract_x
_atom_site_fract_y
_atom_site_fract_z
_atom_site_U_iso_or_equiv
_atom_site_adp_type
_atom_site_occupancy
        C1          C  0.4810270  0.4809900  0.5075960    0.00000       Uiso       1.00
        C2          C  0.5190110  0.0000370  0.5075960    0.00000       Uiso       1.00
        C3          C  0.9999630  0.5189730  0.5075960    0.00000       Uiso       1.00
        C4          C  0.5189730  0.5190110  0.5075960    0.00000       Uiso       1.00
        C5          C  0.4809900  0.9999630  0.5075960    0.00000       Uiso       1.00
        C6          C  0.0000370  0.4810270  0.5075960    0.00000       Uiso       1.00
        C7          C  0.4428000  0.4797360  0.5102970    0.00000       Uiso       1.00
        C8          C  0.5202640  0.9630650  0.5102970    0.00000       Uiso       1.00
        C9          C  0.0369350  0.5572000  0.5102970    0.00000       Uiso       1.00
       C10          C  0.5572000  0.5202640  0.5102970    0.00000       Uiso       1.00
       C11          C  0.4797360  0.0369350  0.5102970    0.00000       Uiso       1.00
       C12          C  0.9630650  0.4428000  0.5102970    0.00000       Uiso       1.00
       C13          C  0.4179430  0.4678670  0.3248300    0.00000       Uiso       1.00
       C14          C  0.5321330  0.9500770  0.3248300    0.00000       Uiso       1.00
       C15          C  0.0499230  0.5820570  0.3248300    0.00000       Uiso       1.00
       C16          C  0.5820570  0.5321330  0.3248300    0.00000       Uiso       1.00
       C17          C  0.4678670  0.0499230  0.3248300    0.00000       Uiso       1.00
       C18          C  0.9500770  0.4179430  0.3248300    0.00000       Uiso       1.00
       C19          C  0.3803830  0.4677220  0.3235470    0.00000       Uiso       1.00
       C20          C  0.5322780  0.9126610  0.3235470    0.00000       Uiso       1.00
       C21          C  0.0873390  0.6196180  0.3235470    0.00000       Uiso       1.00
       C22          C  0.6196180  0.5322780  0.3235470    0.00000       Uiso       1.00
       C23          C  0.4677220  0.0873390  0.3235470    0.00000       Uiso       1.00
       C24          C  0.9126610  0.3803830  0.3235470    0.00000       Uiso       1.00
       C25          C  0.3664800  0.4783470  0.5099610    0.00000       Uiso       1.00
       C26          C  0.5216530  0.8881330  0.5099610    0.00000       Uiso       1.00
       C27          C  0.1118670  0.6335210  0.5099610    0.00000       Uiso       1.00
       C28          C  0.6335210  0.5216530  0.5099610    0.00000       Uiso       1.00
       C29          C  0.4783470  0.1118670  0.5099610    0.00000       Uiso       1.00
       C30          C  0.8881330  0.3664790  0.5099610    0.00000       Uiso       1.00
       C31          C  0.3909290  0.4895230  0.6969020    0.00000       Uiso       1.00
       C32          C  0.5104780  0.9014070  0.6969020    0.00000       Uiso       1.00
       C33          C  0.0985930  0.6090710  0.6969020    0.00000       Uiso       1.00
       C34          C  0.6090710  0.5104780  0.6969020    0.00000       Uiso       1.00
       C35          C  0.4895220  0.0985930  0.6969020    0.00000       Uiso       1.00
       C36          C  0.9014070  0.3909290  0.6969020    0.00000       Uiso       1.00
       C37          C  0.4290160  0.4906800  0.6960810    0.00000       Uiso       1.00
       C38          C  0.5093200  0.9383370  0.6960810    0.00000       Uiso       1.00
       C39          C  0.0616630  0.5709840  0.6960810    0.00000       Uiso       1.00
       C40          C  0.5709840  0.5093200  0.6960810    0.00000       Uiso       1.00
       C41          C  0.4906800  0.0616630  0.6960810    0.00000       Uiso       1.00
       C42          C  0.9383370  0.4290160  0.6960810    0.00000       Uiso       1.00
       C43          C  0.4794760  0.4425760  0.5037410    0.00000       Uiso       1.00
       C44          C  0.5574240  0.0368990  0.5037410    0.00000       Uiso       1.00
       C45          C  0.9631010  0.5205250  0.5037410    0.00000       Uiso       1.00
       C46          C  0.5205250  0.5574240  0.5037410    0.00000       Uiso       1.00
       C47          C  0.4425760  0.9631010  0.5037410    0.00000       Uiso       1.00
       C48          C  0.0368990  0.4794760  0.5037410    0.00000       Uiso       1.00
       C49          C  0.4629920  0.4152210  0.6789441    0.00000       Uiso       1.00
       C50          C  0.5847790  0.0477710  0.6789441    0.00000       Uiso       1.00
       C51          C  0.9522300  0.5370080  0.6789441    0.00000       Uiso       1.00
       C52          C  0.5370080  0.5847790  0.6789441    0.00000       Uiso       1.00
       C53          C  0.4152210  0.9522300  0.6789441    0.00000       Uiso       1.00
       C54          C  0.0477710  0.4629920  0.6789441    0.00000       Uiso       1.00
       C55          C  0.4621390  0.3773160  0.6776410    0.00000       Uiso       1.00
       C56          C  0.6226840  0.0848220  0.6776410    0.00000       Uiso       1.00
       C57          C  0.9151780  0.5378620  0.6776410    0.00000       Uiso       1.00
       C58          C  0.5378620  0.6226840  0.6776410    0.00000       Uiso       1.00
       C59          C  0.3773160  0.9151780  0.6776410    0.00000       Uiso       1.00
       C60          C  0.0848220  0.4621390  0.6776410    0.00000       Uiso       1.00
       C61          C  0.4775890  0.3658310  0.5003850    0.00000       Uiso       1.00
       C62          C  0.6341690  0.1117570  0.5003850    0.00000       Uiso       1.00
       C63          C  0.8882430  0.5224110  0.5003850    0.00000       Uiso       1.00
       C64          C  0.5224110  0.6341690  0.5003850    0.00000       Uiso       1.00
       C65          C  0.3658310  0.8882430  0.5003850    0.00000       Uiso       1.00
       C66          C  0.1117570  0.4775890  0.5003850    0.00000       Uiso       1.00
       C67          C  0.4936050  0.3929030  0.3237920    0.00000       Uiso       1.00
       C68          C  0.6070970  0.1007010  0.3237920    0.00000       Uiso       1.00
       C69          C  0.8992990  0.5063950  0.3237920    0.00000       Uiso       1.00
       C70          C  0.5063950  0.6070970  0.3237920    0.00000       Uiso       1.00
       C71          C  0.3929030  0.8992990  0.3237920    0.00000       Uiso       1.00
       C72          C  0.1007010  0.4936050  0.3237920    0.00000       Uiso       1.00
       C73          C  0.4945120  0.4308350  0.3255590    0.00000       Uiso       1.00
       C74          C  0.5691660  0.0636770  0.3255590    0.00000       Uiso       1.00
       C75          C  0.9363230  0.5054880  0.3255590    0.00000       Uiso       1.00
       C76          C  0.5054880  0.5691660  0.3255590    0.00000       Uiso       1.00
       C77          C  0.4308350  0.9363230  0.3255590    0.00000       Uiso       1.00
       C78          C  0.0636770  0.4945120  0.3255590    0.00000       Uiso       1.00
       B79          B  0.3266050  0.4779050  0.5086730    0.00000       Uiso       1.00
       B80          B  0.5220950  0.8487000  0.5086730    0.00000       Uiso       1.00
       B81          B  0.1513000  0.6733950  0.5086730    0.00000       Uiso       1.00
       B82          B  0.6733950  0.5220950  0.5086730    0.00000       Uiso       1.00
       B83          B  0.4779050  0.1513000  0.5086730    0.00000       Uiso       1.00
       B84          B  0.8487000  0.3266050  0.5086730    0.00000       Uiso       1.00
       O85          O  0.2984260  0.4657390  0.6864400    0.00000       Uiso       1.00
       O86          O  0.5342610  0.8326880  0.6864400    0.00000       Uiso       1.00
       O87          O  0.1673120  0.7015740  0.6864400    0.00000       Uiso       1.00
       O88          O  0.7015740  0.5342610  0.6864400    0.00000       Uiso       1.00
       O89          O  0.4657390  0.1673120  0.6864400    0.00000       Uiso       1.00
       O90          O  0.8326880  0.2984260  0.6864400    0.00000       Uiso       1.00
       O91          O  0.3107560  0.4896450  0.3284850    0.00000       Uiso       1.00
       O92          O  0.5103550  0.8211110  0.3284850    0.00000       Uiso       1.00
       O93          O  0.1788890  0.6892440  0.3284850    0.00000       Uiso       1.00
       O94          O  0.6892440  0.5103550  0.3284850    0.00000       Uiso       1.00
       O95          O  0.4896450  0.1788890  0.3284850    0.00000       Uiso       1.00
       O96          O  0.8211110  0.3107560  0.3284850    0.00000       Uiso       1.00
       C97          C  0.2670430  0.4698930  0.6110920    0.00000       Uiso       1.00
       C98          C  0.5301080  0.7971510  0.6110920    0.00000       Uiso       1.00
       C99          C  0.2028490  0.7329570  0.6110920    0.00000       Uiso       1.00
      C100          C  0.7329570  0.5301080  0.6110920    0.00000       Uiso       1.00
      C101          C  0.4698930  0.2028490  0.6110920    0.00000       Uiso       1.00
      C102          C  0.7971510  0.2670430  0.6110920    0.00000       Uiso       1.00
      B103          B  0.4772010  0.3259070  0.5005480    0.00000       Uiso       1.00
      B104          B  0.6740930  0.1512940  0.5005480    0.00000       Uiso       1.00
      B105          B  0.8487070  0.5227990  0.5005480    0.00000       Uiso       1.00
      B106          B  0.5227990  0.6740930  0.5005480    0.00000       Uiso       1.00
      B107          B  0.3259070  0.8487070  0.5005480    0.00000       Uiso       1.00
      B108          B  0.1512940  0.4772010  0.5005480    0.00000       Uiso       1.00
      O109          O  0.4906950  0.3104570  0.3257350    0.00000       Uiso       1.00
      O110          O  0.6895430  0.1802370  0.3257350    0.00000       Uiso       1.00
      O111          O  0.8197630  0.5093050  0.3257350    0.00000       Uiso       1.00
      O112          O  0.5093050  0.6895430  0.3257350    0.00000       Uiso       1.00
      O113          O  0.3104570  0.8197630  0.3257350    0.00000       Uiso       1.00
      O114          O  0.1802370  0.4906950  0.3257350    0.00000       Uiso       1.00
      O115          O  0.4635150  0.2972230  0.6764839    0.00000       Uiso       1.00
      O116          O  0.7027770  0.1662910  0.6764839    0.00000       Uiso       1.00
      O117          O  0.8337090  0.5364850  0.6764839    0.00000       Uiso       1.00
      O118          O  0.5364850  0.7027770  0.6764839    0.00000       Uiso       1.00
      O119          O  0.2972230  0.8337090  0.6764839    0.00000       Uiso       1.00
      O120          O  0.1662910  0.4635150  0.6764839    0.00000       Uiso       1.00
      C121          C  0.4851370  0.2741980  0.3979670    0.00000       Uiso       1.00
      C122          C  0.7258030  0.2109390  0.3979670    0.00000       Uiso       1.00
      C123          C  0.7890610  0.5148630  0.3979670    0.00000       Uiso       1.00
      C124          C  0.5148630  0.7258030  0.3979670    0.00000       Uiso       1.00
      C125          C  0.2741980  0.7890610  0.3979670    0.00000       Uiso       1.00
      C126          C  0.2109390  0.4851370  0.3979670    0.00000       Uiso       1.00
      C127          C  0.4934110  0.2462310  0.2901710    0.00000       Uiso       1.00
      C128          C  0.7537690  0.2471800  0.2901710    0.00000       Uiso       1.00
      C129          C  0.7528200  0.5065890  0.2901710    0.00000       Uiso       1.00
      C130          C  0.5065890  0.7537700  0.2901710    0.00000       Uiso       1.00
      C131          C  0.2462310  0.7528200  0.2901710    0.00000       Uiso       1.00
      C132          C  0.2471800  0.4934110  0.2901710    0.00000       Uiso       1.00
      C133          C  0.4691100  0.2663990  0.6067480    0.00000       Uiso       1.00
      C134          C  0.7336010  0.2027110  0.6067480    0.00000       Uiso       1.00
      C135          C  0.7972900  0.5308900  0.6067480    0.00000       Uiso       1.00
      C136          C  0.5308900  0.7336010  0.6067480    0.00000       Uiso       1.00
      C137          C  0.2663990  0.7972900  0.6067480    0.00000       Uiso       1.00
      C138          C  0.2027110  0.4691100  0.6067480    0.00000       Uiso       1.00
      C139          C  0.4849430  0.2101490  0.4002400    0.00000       Uiso       1.00
      C140          C  0.7898510  0.2747940  0.4002400    0.00000       Uiso       1.00
      C141          C  0.7252070  0.5150570  0.4002400    0.00000       Uiso       1.00
      C142          C  0.5150570  0.7898510  0.4002400    0.00000       Uiso       1.00
      C143          C  0.2101490  0.7252070  0.4002400    0.00000       Uiso       1.00
      C144          C  0.2747940  0.4849430  0.4002400    0.00000       Uiso       1.00
      C145          C  0.2305040  0.4610010  0.7176051    0.00000       Uiso       1.00
      C146          C  0.5389990  0.7695030  0.7176051    0.00000       Uiso       1.00
      C147          C  0.2304970  0.7694960  0.7176051    0.00000       Uiso       1.00
      C148          C  0.7694960  0.5389990  0.7176051    0.00000       Uiso       1.00
      C149          C  0.4610010  0.2304970  0.7176051    0.00000       Uiso       1.00
      C150          C  0.7695030  0.2305040  0.7176051    0.00000       Uiso       1.00
      H151          H  0.4271530  0.4594300  0.1891430    0.00000       Uiso       1.00
      H152          H  0.3629980  0.4593240  0.1866770    0.00000       Uiso       1.00
      H153          H  0.3814050  0.4974750  0.8334310    0.00000       Uiso       1.00
      H154          H  0.4466880  0.4996180  0.8315820    0.00000       Uiso       1.00
      H155          H  0.4516230  0.4228120  0.8093340    0.00000       Uiso       1.00
      H156          H  0.4501460  0.3581330  0.8073610    0.00000       Uiso       1.00
      H157          H  0.5049040  0.3852680  0.1928790    0.00000       Uiso       1.00
      H158          H  0.5063010  0.4499100  0.1958800    0.00000       Uiso       1.00
      H159          H  0.5052470  0.2519620  0.1392530    0.00000       Uiso       1.00
      H160          H  0.2243500  0.4491100  0.8684200    0.00000       Uiso       1.00
      H161          H  0.5405700  0.9677230  0.1891430    0.00000       Uiso       1.00
      H162          H  0.5406770  0.9036750  0.1866770    0.00000       Uiso       1.00
      H163          H  0.5025250  0.8839310  0.8334310    0.00000       Uiso       1.00
      H164          H  0.5003820  0.9470710  0.8315820    0.00000       Uiso       1.00
      H165          H  0.5771880  0.0288110  0.8093340    0.00000       Uiso       1.00
      H166          H  0.6418670  0.0920120  0.8073610    0.00000       Uiso       1.00
      H167          H  0.6147320  0.1196360  0.1928790    0.00000       Uiso       1.00
      H168          H  0.5500900  0.0563900  0.1958800    0.00000       Uiso       1.00
      H169          H  0.7480380  0.2532850  0.1392530    0.00000       Uiso       1.00
      H170          H  0.5508910  0.7752410  0.8684200    0.00000       Uiso       1.00
      H171          H  0.0322770  0.5728470  0.1891430    0.00000       Uiso       1.00
      H172          H  0.0963250  0.6370020  0.1866770    0.00000       Uiso       1.00
      H173          H  0.1160700  0.6185950  0.8334310    0.00000       Uiso       1.00
      H174          H  0.0529290  0.5533120  0.8315820    0.00000       Uiso       1.00
      H175          H  0.9711891  0.5483770  0.8093340    0.00000       Uiso       1.00
      H176          H  0.9079880  0.5498550  0.8073610    0.00000       Uiso       1.00
      H177          H  0.8803640  0.4950960  0.1928790    0.00000       Uiso       1.00
      H178          H  0.9436100  0.4936990  0.1958800    0.00000       Uiso       1.00
      H179          H  0.7467160  0.4947530  0.1392530    0.00000       Uiso       1.00
      H180          H  0.2247590  0.7756500  0.8684200    0.00000       Uiso       1.00
      H181          H  0.5728470  0.5405700  0.1891430    0.00000       Uiso       1.00
      H182          H  0.6370020  0.5406770  0.1866770    0.00000       Uiso       1.00
      H183          H  0.6185950  0.5025250  0.8334310    0.00000       Uiso       1.00
      H184          H  0.5533120  0.5003820  0.8315820    0.00000       Uiso       1.00
      H185          H  0.5483770  0.5771880  0.8093340    0.00000       Uiso       1.00
      H186          H  0.5498550  0.6418670  0.8073610    0.00000       Uiso       1.00
      H187          H  0.4950960  0.6147320  0.1928790    0.00000       Uiso       1.00
      H188          H  0.4936990  0.5500900  0.1958800    0.00000       Uiso       1.00
      H189          H  0.4947530  0.7480380  0.1392530    0.00000       Uiso       1.00
      H190          H  0.7756500  0.5508910  0.8684200    0.00000       Uiso       1.00
      H191          H  0.4594300  0.0322770  0.1891430    0.00000       Uiso       1.00
      H192          H  0.4593240  0.0963250  0.1866770    0.00000       Uiso       1.00
      H193          H  0.4974750  0.1160700  0.8334310    0.00000       Uiso       1.00
      H194          H  0.4996180  0.0529290  0.8315820    0.00000       Uiso       1.00
      H195          H  0.4228120  0.9711890  0.8093340    0.00000       Uiso       1.00
      H196          H  0.3581330  0.9079880  0.8073610    0.00000       Uiso       1.00
      H197          H  0.3852680  0.8803640  0.1928790    0.00000       Uiso       1.00
      H198          H  0.4499100  0.9436100  0.1958800    0.00000       Uiso       1.00
      H199          H  0.2519620  0.7467160  0.1392530    0.00000       Uiso       1.00
      H200          H  0.4491100  0.2247590  0.8684200    0.00000       Uiso       1.00
      H201          H  0.9677230  0.4271530  0.1891430    0.00000       Uiso       1.00
      H202          H  0.9036750  0.3629980  0.1866770    0.00000       Uiso       1.00
      H203          H  0.8839310  0.3814050  0.8334310    0.00000       Uiso       1.00
      H204          H  0.9470710  0.4466880  0.8315820    0.00000       Uiso       1.00
      H205          H  0.0288110  0.4516230  0.8093340    0.00000       Uiso       1.00
      H206          H  0.0920120  0.4501460  0.8073610    0.00000       Uiso       1.00
      H207          H  0.1196360  0.5049040  0.1928790    0.00000       Uiso       1.00
      H208          H  0.0563900  0.5063010  0.1958800    0.00000       Uiso       1.00
      H209          H  0.2532850  0.5052470  0.1392530    0.00000       Uiso       1.00
      H210          H  0.7752410  0.2243500  0.8684200    0.00000       Uiso       1.00
