data_TpMA
_audit_creation_date              0000-00-00
_audit_creation_method            'LanYouShi'
_symmetry_space_group_name_H-M    'P1'
_cell_length_a                    11.2024002
_cell_length_b                    11.2061005
_cell_length_c                    3.4772000
_cell_angle_alpha                 97.1070023
_cell_angle_beta                  91.6119995
_cell_angle_gamma                 119.7343979
loop_
_atom_site_label
_atom_site_type_symbol
_atom_site_fract_x
_atom_site_fract_y
_atom_site_fract_z
_atom_site_U_iso_or_equiv
_atom_site_adp_type
_atom_site_occupancy
       xx1          C  0.4750600  0.4370400  0.5201600    0.00000       Uiso       1.00
       xx2          N  0.5068200  0.5566700  0.4225600    0.00000       Uiso       1.00
       xx3          O  0.7744700  0.6224500  0.7100500    0.00000       Uiso       1.00
       xx4          C  0.4147200  0.6106400  0.4285100    0.00000       Uiso       1.00
       xx5          N  0.2772900  0.5265700  0.4481800    0.00000       Uiso       1.00
       xx6          C  0.5746700  0.3860700  0.5137800    0.00000       Uiso       1.00
       xx7          C  0.7191200  0.4789600  0.5988300    0.00000       Uiso       1.00
       xx8          C  0.5633300  0.0374500  0.4248500    0.00000       Uiso       1.00
       xx9          N  0.4351800  0.9491000  0.4602000    0.00000       Uiso       1.00
      xx10          O  0.3844700  0.1460500  0.3005700    0.00000       Uiso       1.00
      xx11          C  0.3814300  0.8029900  0.4490800    0.00000       Uiso       1.00
      xx12          N  0.4661800  0.7484300  0.4263100    0.00000       Uiso       1.00
      xx13          C  0.6150500  0.1893000  0.4649800    0.00000       Uiso       1.00
      xx14          C  0.5240000  0.2410300  0.4291500    0.00000       Uiso       1.00
      xx15          C  0.9619000  0.5288700  0.5991700    0.00000       Uiso       1.00
      xx16          N  0.0477300  0.4887400  0.4879300    0.00000       Uiso       1.00
      xx17          O  0.8438300  0.2269400  0.6063100    0.00000       Uiso       1.00
      xx18          C  0.1920800  0.5800500  0.4712900    0.00000       Uiso       1.00
      xx19          N  0.2445700  0.7186400  0.4736900    0.00000       Uiso       1.00
      xx20          C  0.8112900  0.4276800  0.5829700    0.00000       Uiso       1.00
      xx21          C  0.7581100  0.2822700  0.5456300    0.00000       Uiso       1.00
      xx22          H  0.3740000  0.3725600  0.6128800    0.00000       Uiso       1.00
      xx23          H  0.7130400  0.6486000  0.8622400    0.00000       Uiso       1.00
      xx24          H  0.6360600  0.0010000  0.3833100    0.00000       Uiso       1.00
      xx25          H  0.3303800  0.1868500  0.1925600    0.00000       Uiso       1.00
      xx26          H  0.9995500  0.6388500  0.6866201    0.00000       Uiso       1.00
      xx27          H  0.9269500  0.2884400  0.8033800    0.00000       Uiso       1.00
