data_TpPa-1
_audit_creation_date              0000-00-00
_audit_creation_method            'LanYouShi'
_symmetry_space_group_name_H-M    'P1'
_cell_length_a                    22.5559998
_cell_length_b                    22.5559998
_cell_length_c                    3.4000001
_cell_angle_alpha                 90.0000000
_cell_angle_beta                  90.0000000
_cell_angle_gamma                 120.0000000
loop_
_atom_site_label
_atom_site_type_symbol
_atom_site_fract_x
_atom_site_fract_y
_atom_site_fract_z
_atom_site_U_iso_or_equiv
_atom_site_adp_type
_atom_site_occupancy
        O1          O  0.2835500  0.5270900  0.5000000    0.00000       Uiso       1.00
        N2          N  0.4112900  0.5521200  0.5000000    0.00000       Uiso       1.00
        C3          C  0.3069500  0.5914600  0.5000000    0.00000       Uiso       1.00
        C4          C  0.3811300  0.6406300  0.5000000    0.00000       Uiso       1.00
        C5          C  0.4279700  0.6178400  0.5000000    0.00000       Uiso       1.00
        C6          C  0.4548100  0.5270400  0.5000000    0.00000       Uiso       1.00
        C7          C  0.4293600  0.4559000  0.5000000    0.00000       Uiso       1.00
        C8          C  0.5267400  0.5706500  0.5000000    0.00000       Uiso       1.00
        H9          H  0.3735300  0.4204300  0.5000000    0.00000       Uiso       1.00
       H10          H  0.4837000  0.6559700  0.5000000    0.00000       Uiso       1.00
       H11          H  0.5489300  0.6268500  0.5000000    0.00000       Uiso       1.00
       H12          H  0.3575700  0.5174400  0.5000000    0.00000       Uiso       1.00
       O13          O  0.4729100  0.7564600  0.5000000    0.00000       Uiso       1.00
       N14          N  0.4478800  0.8591700  0.5000000    0.00000       Uiso       1.00
       C15          C  0.4085400  0.7154900  0.5000000    0.00000       Uiso       1.00
       C16          C  0.3593700  0.7405000  0.5000000    0.00000       Uiso       1.00
       C17          C  0.3821600  0.8101300  0.5000000    0.00000       Uiso       1.00
       C18          C  0.4729600  0.9277700  0.5000000    0.00000       Uiso       1.00
       C19          C  0.5441000  0.9734600  0.5000000    0.00000       Uiso       1.00
       C20          C  0.4293500  0.9560900  0.5000000    0.00000       Uiso       1.00
       H21          H  0.5795700  0.9531000  0.5000000    0.00000       Uiso       1.00
       H22          H  0.3440300  0.8277299  0.5000000    0.00000       Uiso       1.00
       H23          H  0.3731500  0.9220800  0.5000000    0.00000       Uiso       1.00
       H24          H  0.4825600  0.8401300  0.5000000    0.00000       Uiso       1.00
       O25          O  0.2435400  0.7164500  0.5000000    0.00000       Uiso       1.00
       N26          N  0.1408300  0.5887100  0.5000000    0.00000       Uiso       1.00
       C27          C  0.2845100  0.6930500  0.5000000    0.00000       Uiso       1.00
       C28          C  0.2595000  0.6188700  0.5000000    0.00000       Uiso       1.00
       C29          C  0.1898700  0.5720300  0.5000000    0.00000       Uiso       1.00
       C30          C  0.0722300  0.5451900  0.5000000    0.00000       Uiso       1.00
       C31          C  0.0265400  0.5706400  0.5000000    0.00000       Uiso       1.00
       C32          C  0.0439100  0.4732600  0.5000000    0.00000       Uiso       1.00
       H33          H  0.0469000  0.6264700  0.5000000    0.00000       Uiso       1.00
       H34          H  0.1722700  0.5163000  0.5000000    0.00000       Uiso       1.00
       H35          H  0.0779200  0.4510700  0.5000000    0.00000       Uiso       1.00
       H36          H  0.1598700  0.6424300  0.5000000    0.00000       Uiso       1.00
       O37          O  0.7164500  0.4729100  0.5000000    0.00000       Uiso       1.00
       N38          N  0.5887100  0.4478800  0.5000000    0.00000       Uiso       1.00
       C39          C  0.6930500  0.4085400  0.5000000    0.00000       Uiso       1.00
       C40          C  0.6188700  0.3593700  0.5000000    0.00000       Uiso       1.00
       C41          C  0.5720300  0.3821600  0.5000000    0.00000       Uiso       1.00
       C42          C  0.5451900  0.4729600  0.5000000    0.00000       Uiso       1.00
       C43          C  0.5706400  0.5441000  0.5000000    0.00000       Uiso       1.00
       C44          C  0.4732600  0.4293500  0.5000000    0.00000       Uiso       1.00
       H45          H  0.6264700  0.5795700  0.5000000    0.00000       Uiso       1.00
       H46          H  0.5163000  0.3440300  0.5000000    0.00000       Uiso       1.00
       H47          H  0.4510700  0.3731500  0.5000000    0.00000       Uiso       1.00
       H48          H  0.6424300  0.4825600  0.5000000    0.00000       Uiso       1.00
       O49          O  0.5270900  0.2435400  0.5000000    0.00000       Uiso       1.00
       N50          N  0.5521200  0.1408300  0.5000000    0.00000       Uiso       1.00
       C51          C  0.5914600  0.2845100  0.5000000    0.00000       Uiso       1.00
       C52          C  0.6406300  0.2595000  0.5000000    0.00000       Uiso       1.00
       C53          C  0.6178400  0.1898700  0.5000000    0.00000       Uiso       1.00
       C54          C  0.5270400  0.0722300  0.5000000    0.00000       Uiso       1.00
       C55          C  0.4559000  0.0265400  0.5000000    0.00000       Uiso       1.00
       C56          C  0.5706500  0.0439100  0.5000000    0.00000       Uiso       1.00
       H57          H  0.4204300  0.0469000  0.5000000    0.00000       Uiso       1.00
       H58          H  0.6559700  0.1722700  0.5000000    0.00000       Uiso       1.00
       H59          H  0.6268500  0.0779200  0.5000000    0.00000       Uiso       1.00
       H60          H  0.5174400  0.1598700  0.5000000    0.00000       Uiso       1.00
       O61          O  0.7564600  0.2835500  0.5000000    0.00000       Uiso       1.00
       N62          N  0.8591700  0.4112900  0.5000000    0.00000       Uiso       1.00
       C63          C  0.7154900  0.3069500  0.5000000    0.00000       Uiso       1.00
       C64          C  0.7405000  0.3811300  0.5000000    0.00000       Uiso       1.00
       C65          C  0.8101300  0.4279700  0.5000000    0.00000       Uiso       1.00
       C66          C  0.9277700  0.4548100  0.5000000    0.00000       Uiso       1.00
       C67          C  0.9734600  0.4293600  0.5000000    0.00000       Uiso       1.00
       C68          C  0.9560900  0.5267400  0.5000000    0.00000       Uiso       1.00
       H69          H  0.9531000  0.3735300  0.5000000    0.00000       Uiso       1.00
       H70          H  0.8277300  0.4837000  0.5000000    0.00000       Uiso       1.00
       H71          H  0.9220800  0.5489300  0.5000000    0.00000       Uiso       1.00
       H72          H  0.8401300  0.3575700  0.5000000    0.00000       Uiso       1.00
