data_TpPA-2
_audit_creation_date              0000-00-00
_audit_creation_method            'LanYouShi'
_symmetry_space_group_name_H-M    'P1'
_cell_length_a                    22.5060005
_cell_length_b                    22.5060005
_cell_length_c                    3.5000000
_cell_angle_alpha                 90.0000000
_cell_angle_beta                  90.0000000
_cell_angle_gamma                 120.0000000
loop_
_atom_site_label
_atom_site_type_symbol
_atom_site_fract_x
_atom_site_fract_y
_atom_site_fract_z
_atom_site_U_iso_or_equiv
_atom_site_adp_type
_atom_site_occupancy
        H1          H  0.4104800  0.0845400  0.2572000    0.00000       Uiso       1.00
        H2          H  0.9154600  0.3259400  0.2572000    0.00000       Uiso       1.00
        H3          H  0.6740600  0.5895200  0.2572000    0.00000       Uiso       1.00
        H4          H  0.5895200  0.9154599  0.2572000    0.00000       Uiso       1.00
        H5          H  0.0845400  0.6740600  0.2572000    0.00000       Uiso       1.00
        H6          H  0.3259400  0.4104800  0.2572000    0.00000       Uiso       1.00
        H7          H  0.5895200  0.9154599 -0.2572000    0.00000       Uiso       1.00
        H8          H  0.0845400  0.6740600 -0.2572000    0.00000       Uiso       1.00
        H9          H  0.3259400  0.4104800 -0.2572000    0.00000       Uiso       1.00
       H10          H  0.4104800  0.0845400 -0.2572000    0.00000       Uiso       1.00
       H11          H  0.9154600  0.3259400 -0.2572000    0.00000       Uiso       1.00
       H12          H  0.6740600  0.5895200 -0.2572000    0.00000       Uiso       1.00
       O13          O  0.7576700  0.2847400  0.0000000    0.00000       Uiso       1.00
       N14          N  0.5528800  0.1409500  0.0000000    0.00000       Uiso       1.00
       C15          C  0.7161200  0.3075000  0.0000000    0.00000       Uiso       1.00
       C16          C  0.6413800  0.2595100  0.0000000    0.00000       Uiso       1.00
       C17          C  0.6188900  0.1897900  0.0000000    0.00000       Uiso       1.00
       C18          C  0.5265300  0.0719600  0.0000000    0.00000       Uiso       1.00
       C19          C  0.5702000  0.0438800  0.0000000    0.00000       Uiso       1.00
       C20          C  0.4543800  0.0266500  0.0000000    0.00000       Uiso       1.00
       C21          C  0.4046400  0.0533400  0.0000000    0.00000       Uiso       1.00
       H22          H  0.6262900  0.0794300  0.0000000    0.00000       Uiso       1.00
       H23          H  0.6569900  0.1721700  0.0000000    0.00000       Uiso       1.00
       H24          H  0.5189700  0.1615900  0.0000000    0.00000       Uiso       1.00
       H25          H  0.3503800  0.0096100  0.0000000    0.00000       Uiso       1.00
       O26          O  0.7152600  0.4729300  0.0000000    0.00000       Uiso       1.00
       N27          N  0.8590500  0.4119300  0.0000000    0.00000       Uiso       1.00
       C28          C  0.6925000  0.4086200  0.0000000    0.00000       Uiso       1.00
       C29          C  0.7404900  0.3818700  0.0000000    0.00000       Uiso       1.00
       C30          C  0.8102100  0.4291000  0.0000000    0.00000       Uiso       1.00
       C31          C  0.9280400  0.4545700  0.0000000    0.00000       Uiso       1.00
       C32          C  0.9561200  0.5263200  0.0000000    0.00000       Uiso       1.00
       C33          C  0.9733500  0.4277300  0.0000000    0.00000       Uiso       1.00
       C34          C  0.9466599  0.3513000  0.0000000    0.00000       Uiso       1.00
       H35          H  0.9205700  0.5468600  0.0000000    0.00000       Uiso       1.00
       H36          H  0.8278300  0.4848200  0.0000000    0.00000       Uiso       1.00
       H37          H  0.8384100  0.3573800  0.0000000    0.00000       Uiso       1.00
       H38          H  0.9903899  0.3407700  0.0000000    0.00000       Uiso       1.00
       O39          O  0.5270700  0.2423300  0.0000000    0.00000       Uiso       1.00
       N40          N  0.5880700  0.4471200  0.0000000    0.00000       Uiso       1.00
       C41          C  0.5913800  0.2838800  0.0000000    0.00000       Uiso       1.00
       C42          C  0.6181300  0.3586200  0.0000000    0.00000       Uiso       1.00
       C43          C  0.5709000  0.3811100  0.0000000    0.00000       Uiso       1.00
       C44          C  0.5454300  0.4734700  0.0000000    0.00000       Uiso       1.00
       C45          C  0.4736800  0.4298000  0.0000000    0.00000       Uiso       1.00
       C46          C  0.5722700  0.5456200  0.0000000    0.00000       Uiso       1.00
       C47          C  0.6487000  0.5953600  0.0000000    0.00000       Uiso       1.00
       H48          H  0.4531400  0.3737100  0.0000000    0.00000       Uiso       1.00
       H49          H  0.5151800  0.3430100  0.0000000    0.00000       Uiso       1.00
       H50          H  0.6426200  0.4810300  0.0000000    0.00000       Uiso       1.00
       H51          H  0.6592300  0.6496200  0.0000000    0.00000       Uiso       1.00
       O52          O  0.2423300  0.7152600  0.0000000    0.00000       Uiso       1.00
       N53          N  0.4471200  0.8590500  0.0000000    0.00000       Uiso       1.00
       C54          C  0.2838800  0.6925000  0.0000000    0.00000       Uiso       1.00
       C55          C  0.3586200  0.7404900  0.0000000    0.00000       Uiso       1.00
       C56          C  0.3811100  0.8102100  0.0000000    0.00000       Uiso       1.00
       C57          C  0.4734700  0.9280400  0.0000000    0.00000       Uiso       1.00
       C58          C  0.4298000  0.9561200  0.0000000    0.00000       Uiso       1.00
       C59          C  0.5456200  0.9733499  0.0000000    0.00000       Uiso       1.00
       C60          C  0.5953600  0.9466600  0.0000000    0.00000       Uiso       1.00
       H61          H  0.3737100  0.9205701  0.0000000    0.00000       Uiso       1.00
       H62          H  0.3430100  0.8278300  0.0000000    0.00000       Uiso       1.00
       H63          H  0.4810300  0.8384100  0.0000000    0.00000       Uiso       1.00
       H64          H  0.6496200  0.9903899  0.0000000    0.00000       Uiso       1.00
       O65          O  0.2847400  0.5270700  0.0000000    0.00000       Uiso       1.00
       N66          N  0.1409500  0.5880700  0.0000000    0.00000       Uiso       1.00
       C67          C  0.3075000  0.5913800  0.0000000    0.00000       Uiso       1.00
       C68          C  0.2595100  0.6181300  0.0000000    0.00000       Uiso       1.00
       C69          C  0.1897900  0.5709000  0.0000000    0.00000       Uiso       1.00
       C70          C  0.0719600  0.5454300  0.0000000    0.00000       Uiso       1.00
       C71          C  0.0438800  0.4736800  0.0000000    0.00000       Uiso       1.00
       C72          C  0.0266500  0.5722700  0.0000000    0.00000       Uiso       1.00
       C73          C  0.0533400  0.6487000  0.0000000    0.00000       Uiso       1.00
       H74          H  0.0794300  0.4531400  0.0000000    0.00000       Uiso       1.00
       H75          H  0.1721700  0.5151800  0.0000000    0.00000       Uiso       1.00
       H76          H  0.1615900  0.6426200  0.0000000    0.00000       Uiso       1.00
       H77          H  0.0096100  0.6592300  0.0000000    0.00000       Uiso       1.00
       O78          O  0.4729300  0.7576700  0.0000000    0.00000       Uiso       1.00
       N79          N  0.4119300  0.5528800  0.0000000    0.00000       Uiso       1.00
       C80          C  0.4086200  0.7161200  0.0000000    0.00000       Uiso       1.00
       C81          C  0.3818700  0.6413800  0.0000000    0.00000       Uiso       1.00
       C82          C  0.4291000  0.6188900  0.0000000    0.00000       Uiso       1.00
       C83          C  0.4545700  0.5265300  0.0000000    0.00000       Uiso       1.00
       C84          C  0.5263200  0.5702000  0.0000000    0.00000       Uiso       1.00
       C85          C  0.4277300  0.4543800  0.0000000    0.00000       Uiso       1.00
       C86          C  0.3513000  0.4046400  0.0000000    0.00000       Uiso       1.00
       H87          H  0.5468600  0.6262900  0.0000000    0.00000       Uiso       1.00
       H88          H  0.4848200  0.6569900  0.0000000    0.00000       Uiso       1.00
       H89          H  0.3573800  0.5189700  0.0000000    0.00000       Uiso       1.00
       H90          H  0.3407700  0.3503800  0.0000000    0.00000       Uiso       1.00
