data_TpPA-NO2
_audit_creation_date              0000-00-00
_audit_creation_method            'LanYouShi'
_symmetry_space_group_name_H-M    'P1'
_cell_length_a                    21.7999992
_cell_length_b                    21.7999992
_cell_length_c                    3.2400000
_cell_angle_alpha                 90.0000000
_cell_angle_beta                  90.0000000
_cell_angle_gamma                 120.0000000
loop_
_atom_site_label
_atom_site_type_symbol
_atom_site_fract_x
_atom_site_fract_y
_atom_site_fract_z
_atom_site_U_iso_or_equiv
_atom_site_adp_type
_atom_site_occupancy
        C1          C  0.5402700  0.8721600  0.4816700    0.00000       Uiso       1.00
        C2          C  0.2103500  0.6967600  0.4816700    0.00000       Uiso       1.00
        C3          C  0.1826600  0.7412800  0.4816700    0.00000       Uiso       1.00
        C4          C  0.2258900  0.8132500  0.4816700    0.00000       Uiso       1.00
        C5          C  0.2961900  0.8400100  0.4816700    0.00000       Uiso       1.00
        C6          C  0.0628000  0.6535800  0.4816700    0.00000       Uiso       1.00
        C7          C -0.0051400  0.6406700  0.4816700    0.00000       Uiso       1.00
        C8          C  0.9691000  1.6786400  0.4816700    0.00000       Uiso       1.00
        C9          C  0.8979900  1.6626000  0.4816700    0.00000       Uiso       1.00
       C10          C  0.8419100  1.5922800  0.4816700    0.00000       Uiso       1.00
       C11          C  0.8591200  1.5375500  0.4816700    0.00000       Uiso       1.00
       C12          C  0.5110000  0.9181100  0.4816700    0.00000       Uiso       1.00
       C13          C  0.9299300  1.5511000  0.4816700    0.00000       Uiso       1.00
       C14          C  0.8052300  1.4700800  0.4816700    0.00000       Uiso       1.00
       C15          C  0.7745600  1.3496701  0.4816700    0.00000       Uiso       1.00
       C16          C  0.7033600  1.3231300  0.4816700    0.00000       Uiso       1.00
       C17          C  0.8840400  1.7173700  0.4816700    0.00000       Uiso       1.00
       C18          C  0.7951300  1.7502500  0.4816700    0.00000       Uiso       1.00
       C19          C  0.8389400  1.8213201  0.4816700    0.00000       Uiso       1.00
       C20          C  0.6710200  1.0909600  0.4816700    0.00000       Uiso       1.00
       C21          C  0.6883300  1.2064199  0.4816700    0.00000       Uiso       1.00
       C22          C  0.7610100  1.2352300  0.4816700    0.00000       Uiso       1.00
       C23          C  0.5531300  0.9928100  0.4816700    0.00000       Uiso       1.00
       C24          C  0.6415400  0.8590301  0.4816700    0.00000       Uiso       1.00
       C25          C  0.7384700  0.8391800  0.4816700    0.00000       Uiso       1.00
       C26          C  0.6954500  0.7666100  0.4816700    0.00000       Uiso       1.00
       C27          C  0.8111601  0.8656901  0.4816700    0.00000       Uiso       1.00
       C28          C  0.6603300  1.2520601  0.4816700    0.00000       Uiso       1.00
       C29          C  0.8034400  1.3054200  0.4816700    0.00000       Uiso       1.00
       C30          C  0.7230300  0.7229800  0.4816700    0.00000       Uiso       1.00
       C31          C  0.6274000  1.0209900  0.4816700    0.00000       Uiso       1.00
       C32          C  0.6601400  0.9777700  0.4816700    0.00000       Uiso       1.00
       C33          C  0.6151400  0.9037300  0.4816700    0.00000       Uiso       1.00
       C34          C  0.4407900  0.8925501  0.4816700    0.00000       Uiso       1.00
       C35          C  0.3262600  0.7964400  0.4816700    0.00000       Uiso       1.00
       C36          C  0.2816600  0.7239000  0.4816700    0.00000       Uiso       1.00
       H37          H  0.3294200  0.8972701  0.4816700    0.00000       Uiso       1.00
       H38          H  0.7275900  1.1080700  0.4816700    0.00000       Uiso       1.00
       H39          H  0.8964000  1.8454200  0.4816700    0.00000       Uiso       1.00
       H40          H  0.9279500  1.7716200  0.4816700    0.00000       Uiso       1.00
       H41          H  0.5908100  1.1118900  0.4816700    0.00000       Uiso       1.00
       H42          H  0.7411400  0.9376299  0.4816700    0.00000       Uiso       1.00
       H43          H  0.4219000  0.7927200  0.4816700    0.00000       Uiso       1.00
       H44          H  0.0892100  0.7538700  0.4816700    0.00000       Uiso       1.00
       H45          H  0.8788000  1.4419800  0.4816700    0.00000       Uiso       1.00
       H46          H  0.7840600  1.6450700  0.4816700    0.00000       Uiso       1.00
       H47          H  0.2018500  0.8474200  0.4816700    0.00000       Uiso       1.00
       H48          H  0.4226900  0.9318000  0.4816700    0.00000       Uiso       1.00
       H49          H  0.6893200  1.6655800  0.4816700    0.00000       Uiso       1.00
       H50          H  0.8609000  1.3285201  0.4816700    0.00000       Uiso       1.00
       H51          H  0.6781400  1.3562100  0.4816700    0.00000       Uiso       1.00
       H52          H  0.7506300  1.4602200  0.4816700    0.00000       Uiso       1.00
       H53          H  0.6382900  0.7437000  0.4816700    0.00000       Uiso       1.00
       H54          H  0.6028700  0.8027700  0.4816700    0.00000       Uiso       1.00
       H55          H  0.1781100  0.6393700  0.4816700    0.00000       Uiso       1.00
       H56          H  0.0735800  0.6090700  0.4816700    0.00000       Uiso       1.00
       H57          H  0.7850500  1.2012700  0.4816700    0.00000       Uiso       1.00
       N58          N  0.3968800  0.8247900  0.4816700    0.00000       Uiso       1.00
       N59          N  0.7094900  0.8816300  0.4816700    0.00000       Uiso       1.00
       N60          N  0.6470800  1.1359100  0.4816700    0.00000       Uiso       1.00
       N61          N  0.8188700  1.7033100  0.4816700    0.00000       Uiso       1.00
       N62          N  0.8205500  1.4193900  0.4816700    0.00000       Uiso       1.00
       N63          N  0.1127400  0.7183200  0.4816700    0.00000       Uiso       1.00
       N64          N  0.3063800  0.6734300  0.4816700    0.00000       Uiso       1.00
       N65          N  0.8609000  0.9395400  0.4816700    0.00000       Uiso       1.00
       N66          N  0.5860700  1.2284600  0.4816700    0.00000       Uiso       1.00
       O67          O  0.0282900  0.7609300  0.4816700    0.00000       Uiso       1.00
       O68          O  0.8383500  0.9814700  0.4816700    0.00000       Uiso       1.00
       O69          O  0.5675700  1.2733200  0.4816700    0.00000       Uiso       1.00
       O70          O  0.5452200  1.1649500  0.4816700    0.00000       Uiso       1.00
       O71          O  0.9454600  1.5021100  0.4816700    0.00000       Uiso       1.00
       O72          O  0.7782200  1.5778900  0.4816700    0.00000       Uiso       1.00
       O73          O  0.5255400  1.0313300  0.4816700    0.00000       Uiso       1.00
       O74          O  0.7253100  1.0043200  0.4816700    0.00000       Uiso       1.00
       O75          O  0.5026900  0.8070800  0.4816700    0.00000       Uiso       1.00
       O76          O  0.3700700  0.6953100  0.4816700    0.00000       Uiso       1.00
       O77          O  0.2624800  0.6111600  0.4816700    0.00000       Uiso       1.00
       O78          O  0.9233000  0.9567500  0.4816700    0.00000       Uiso       1.00
