data_TpPa-SO3H
_audit_creation_date              0000-00-00
_audit_creation_method            'LanYouShi'
_symmetry_space_group_name_H-M    'P1'
_cell_length_a                    23.2823009
_cell_length_b                    23.2823009
_cell_length_c                    3.3000000
_cell_angle_alpha                 90.0000000
_cell_angle_beta                  90.0000000
_cell_angle_gamma                 120.0000000
loop_
_atom_site_label
_atom_site_type_symbol
_atom_site_fract_x
_atom_site_fract_y
_atom_site_fract_z
_atom_site_U_iso_or_equiv
_atom_site_adp_type
_atom_site_occupancy
        C1          C  0.4152520  0.6140640  0.6123780    0.00000       Uiso       1.00
        C2          C  0.5847480  0.3859360  0.6123780    0.00000       Uiso       1.00
        N3          N  0.3949050  0.5415010  0.6123780    0.00000       Uiso       1.00
        N4          N  0.6050950  0.4585000  0.6123780    0.00000       Uiso       1.00
        C5          C  0.4470520  0.5210900  0.6123780    0.00000       Uiso       1.00
        C6          C  0.5529470  0.4789110  0.6123780    0.00000       Uiso       1.00
        C7          C  0.4258590  0.4469670  0.6123780    0.00000       Uiso       1.00
        C8          C  0.5741400  0.5530330  0.6123780    0.00000       Uiso       1.00
        C9          C  0.4788620  0.4258710  0.6123780    0.00000       Uiso       1.00
       C10          C  0.5211370  0.5741300  0.6123780    0.00000       Uiso       1.00
       H11          H  0.4700520  0.6534710  0.6123780    0.00000       Uiso       1.00
       H12          H  0.5299480  0.3465300  0.6123780    0.00000       Uiso       1.00
       H13          H  0.6288530  0.5921020  0.6123780    0.00000       Uiso       1.00
       H14          H  0.4632160  0.3709410  0.6123780    0.00000       Uiso       1.00
       H15          H  0.5367830  0.6290600  0.6123780    0.00000       Uiso       1.00
       H16          H  0.6584270  0.4968730  0.6123780    0.00000       Uiso       1.00
       H17          H  0.3415720  0.5031270  0.6123780    0.00000       Uiso       1.00
       S18          S  0.3387140  0.3847400  0.6123780    0.00000       Uiso       1.00
       O19          O  0.3317740  0.3201450  0.6123780    0.00000       Uiso       1.00
       O20          O  0.3077680  0.3925050  0.2880910    0.00000       Uiso       1.00
       O21          O  0.3053810  0.3931000  0.9615870    0.00000       Uiso       1.00
       H22          H  0.2591500  0.3601280  0.9617150    0.00000       Uiso       1.00
       C23          C  0.6955890  0.4024700  0.6123780    0.00000       Uiso       1.00
       C24          C  0.6254840  0.3629060  0.6123780    0.00000       Uiso       1.00
       C25          C  0.3044100  0.5975310  0.6123780    0.00000       Uiso       1.00
       C26          C  0.3745160  0.6370950  0.6123780    0.00000       Uiso       1.00
       O27          O  0.7204430  0.4595810  0.6123780    0.00000       Uiso       1.00
       O28          O  0.2795570  0.5404190  0.6123780    0.00000       Uiso       1.00
       C29          C  0.3859360  0.8011881  0.6123780    0.00000       Uiso       1.00
       C30          C  0.6140640  1.1988111  0.6123780    0.00000       Uiso       1.00
       N31          N  0.4584990  0.8534040  0.6123780    0.00000       Uiso       1.00
       N32          N  0.5415000  1.1465950  0.6123780    0.00000       Uiso       1.00
       C33          C  0.4789100  0.9259620  0.6123780    0.00000       Uiso       1.00
       C34          C  0.5210890  1.0740370  0.6123780    0.00000       Uiso       1.00
       C35          C  0.5530330  0.9788920  0.6123780    0.00000       Uiso       1.00
       C36          C  0.4469660  1.0211070  0.6123780    0.00000       Uiso       1.00
       C37          C  0.5741290  1.0529910  0.6123780    0.00000       Uiso       1.00
       C38          C  0.4258700  0.9470080  0.6123780    0.00000       Uiso       1.00
       H39          H  0.3465290  0.8165810  0.6123780    0.00000       Uiso       1.00
       H40          H  0.6534700  1.1834180  0.6123780    0.00000       Uiso       1.00
       H41          H  0.4078980  1.0367510  0.6123780    0.00000       Uiso       1.00
       H42          H  0.6290590  1.0922760  0.6123780    0.00000       Uiso       1.00
       H43          H  0.3709400  0.9077230  0.6123780    0.00000       Uiso       1.00
       H44          H  0.5031270  1.1615540  0.6123780    0.00000       Uiso       1.00
       H45          H  0.4968730  0.8384450  0.6123780    0.00000       Uiso       1.00
       S46          S  0.6152600  0.9539740  0.6123780    0.00000       Uiso       1.00
       O47          O  0.6798549  1.0116290  0.6123780    0.00000       Uiso       1.00
       O48          O  0.6074950  0.9152620  0.2880910    0.00000       Uiso       1.00
       O49          O  0.6069000  0.9122810  0.9615870    0.00000       Uiso       1.00
       H50          H  0.6398720  0.8990219  0.9617150    0.00000       Uiso       1.00
       C51          C  0.5975300  1.2931190  0.6123780    0.00000       Uiso       1.00
       C52          C  0.6370940  1.2625780  0.6123780    0.00000       Uiso       1.00
       C53          C  0.4024690  0.7068800  0.6123780    0.00000       Uiso       1.00
       C54          C  0.3629050  0.7374210  0.6123780    0.00000       Uiso       1.00
       O55          O  0.5404190  1.2608610  0.6123780    0.00000       Uiso       1.00
       O56          O  0.4595810  0.7391380  0.6123780    0.00000       Uiso       1.00
       C57          C  0.1988120  0.5847480  0.6123780    0.00000       Uiso       1.00
       C58          C -0.1988110  0.4152520  0.6123780    0.00000       Uiso       1.00
       N59          N  0.1465960  0.6050950  0.6123780    0.00000       Uiso       1.00
       N60          N -0.1465950  0.3949050  0.6123780    0.00000       Uiso       1.00
       C61          C  0.0740380  0.5529480  0.6123780    0.00000       Uiso       1.00
       C62          C -0.0740370  0.4470530  0.6123780    0.00000       Uiso       1.00
       C63          C  0.0211080  0.5741410  0.6123780    0.00000       Uiso       1.00
       C64          C -0.0211070  0.4258600  0.6123780    0.00000       Uiso       1.00
       C65          C -0.0529910  0.5211380  0.6123780    0.00000       Uiso       1.00
       C66          C  0.0529920  0.4788630  0.6123780    0.00000       Uiso       1.00
       H67          H  0.1834190  0.5299480  0.6123780    0.00000       Uiso       1.00
       H68          H -0.1834180  0.4700520  0.6123780    0.00000       Uiso       1.00
       H69          H -0.0367510  0.3711470  0.6123780    0.00000       Uiso       1.00
       H70          H -0.0922760  0.5367840  0.6123780    0.00000       Uiso       1.00
       H71          H  0.0922770  0.4632170  0.6123780    0.00000       Uiso       1.00
       H72          H -0.1615540  0.3415730  0.6123780    0.00000       Uiso       1.00
       H73          H  0.1615550  0.6584270  0.6123780    0.00000       Uiso       1.00
       S74          S  0.0460260  0.6612860  0.6123780    0.00000       Uiso       1.00
       O75          O -0.0116290  0.6682260  0.6123780    0.00000       Uiso       1.00
       O76          O  0.0847380  0.6922320  0.2880910    0.00000       Uiso       1.00
       O77          O  0.0877190  0.6946190  0.9615870    0.00000       Uiso       1.00
       H78          H  0.1009780  0.7408500  0.9617150    0.00000       Uiso       1.00
       C79          C -0.2931190  0.3044110  0.6123780    0.00000       Uiso       1.00
       C80          C -0.2625780  0.3745160  0.6123780    0.00000       Uiso       1.00
       C81          C  0.2931200  0.6955890  0.6123780    0.00000       Uiso       1.00
       C82          C  0.2625790  0.6254840  0.6123780    0.00000       Uiso       1.00
       O83          O -0.2608610  0.2795570  0.6123780    0.00000       Uiso       1.00
       O84          O  0.2608620  0.7204430  0.6123780    0.00000       Uiso       1.00
