data_Tp-Por-COF-AA-38
_audit_creation_date              0000-00-00
_audit_creation_method            'LanYouShi'
_symmetry_space_group_name_H-M    'P1'
_cell_length_a                    52.2000008
_cell_length_b                    52.2000008
_cell_length_c                    3.8000000
_cell_angle_alpha                 90.0000000
_cell_angle_beta                  90.0000000
_cell_angle_gamma                 120.0000000
loop_
_atom_site_label
_atom_site_type_symbol
_atom_site_fract_x
_atom_site_fract_y
_atom_site_fract_z
_atom_site_U_iso_or_equiv
_atom_site_adp_type
_atom_site_occupancy
        C1          C  0.9195500  0.9472400 -0.0139400    0.00000       Uiso       1.00
        N2          N  0.6990500  0.8762200 -0.0139100    0.00000       Uiso       1.00
        C3          C  0.7286300  0.8884100  0.0206100    0.00000       Uiso       1.00
        C4          C  0.7420000  0.9188300  0.0659700    0.00000       Uiso       1.00
        C5          C  0.7197700  0.9256900  0.0533100    0.00000       Uiso       1.00
        C6          C  0.8238801  0.9315001 -0.2134900    0.00000       Uiso       1.00
        C7          C  0.7930000  0.9158800 -0.2116800    0.00000       Uiso       1.00
        C8          C  0.9457000  0.0004600 -0.0309800    0.00000       Uiso       1.00
        C9          C  0.9728900  0.0007900 -0.0241800    0.00000       Uiso       1.00
       C10          C  0.4139000  0.7207300  0.0334700    0.00000       Uiso       1.00
       N11          N  0.6344400  0.7915900  0.0327500    0.00000       Uiso       1.00
       C12          C  0.6394500  0.7689400  0.0887700    0.00000       Uiso       1.00
       C13          C  0.6048900  0.7796400  0.0686200    0.00000       Uiso       1.00
       C14          C  0.5915500  0.7496500  0.1512900    0.00000       Uiso       1.00
       C15          C  0.6137900  0.7427700  0.1614700    0.00000       Uiso       1.00
       C16          C  0.5094300  0.7353199 -0.1593100    0.00000       Uiso       1.00
       C17          C  0.5403200  0.7508900 -0.1634300    0.00000       Uiso       1.00
       O18          O  0.4421100  0.7451300  0.0485300    0.00000       Uiso       1.00
       C19          C  0.3875800  0.6675100  0.0082500    0.00000       Uiso       1.00
       C20          C  0.3604100  0.6672500  0.0200500    0.00000       Uiso       1.00
       C21          C  0.4138700  0.6944700  0.0103800    0.00000       Uiso       1.00
       C22          C  0.6394300  0.8715900 -0.0630800    0.00000       Uiso       1.00
       C23          C  0.6048600  0.8263600 -0.0373500    0.00000       Uiso       1.00
       C24          C  0.5914800  0.8429999 -0.1176500    0.00000       Uiso       1.00
       C25          C  0.6137200  0.8720999 -0.1313800    0.00000       Uiso       1.00
       C26          C  0.5095100  0.7753199  0.1994800    0.00000       Uiso       1.00
       C27          C  0.5404100  0.7906100  0.2014400    0.00000       Uiso       1.00
       C28          C  0.3876500  0.7214701  0.0357500    0.00000       Uiso       1.00
       C29          C  0.3604500  0.6946000  0.0241100    0.00000       Uiso       1.00
       C30          C  0.9194900  0.9734699 -0.0304200    0.00000       Uiso       1.00
       N31          N  0.6990400  0.8238599  0.0266600    0.00000       Uiso       1.00
       C32          C  0.6939900  0.7959500  0.0092000    0.00000       Uiso       1.00
       C33          C  0.7285801  0.8411900 -0.0149900    0.00000       Uiso       1.00
       C34          C  0.7418500  0.8240800 -0.0629200    0.00000       Uiso       1.00
       C35          C  0.7196200  0.7950000 -0.0444900    0.00000       Uiso       1.00
       C36          C  0.8242600  0.8935400  0.1890000    0.00000       Uiso       1.00
       C37          C  0.7933699  0.8782699  0.1971200    0.00000       Uiso       1.00
       O38          O  0.8913100  0.9696600 -0.0422700    0.00000       Uiso       1.00
       C39          C  0.9458300  0.9465801 -0.0143400    0.00000       Uiso       1.00
       C40          C  0.6667400  0.8972400 -0.0376700    0.00000       Uiso       1.00
       C41          C  0.6667200  0.7705600  0.0581500    0.00000       Uiso       1.00
       C42          C  0.8395100  0.9202400 -0.0147400    0.00000       Uiso       1.00
       B43          B  0.8737600  0.9374000 -0.0195500    0.00000       Uiso       1.00
       C44          C  0.5895000  0.7953101  0.0166600    0.00000       Uiso       1.00
       C45          C  0.4940100  0.7475900  0.0205800    0.00000       Uiso       1.00
       C46          C  0.5562900  0.7787100  0.0184100    0.00000       Uiso       1.00
       B47          B  0.4597100  0.7304700  0.0215100    0.00000       Uiso       1.00
       C48          C  0.6940600  0.8991100  0.0000000    0.00000       Uiso       1.00
       O49          O  0.8914200  0.9228000  0.0000000    0.00000       Uiso       1.00
       N50          N  0.6344400  0.8439500  0.0000000    0.00000       Uiso       1.00
       O51          O  0.4420500  0.6982100  0.0000000    0.00000       Uiso       1.00
       C52          C  0.7440000  0.8724900  0.0000000    0.00000       Uiso       1.00
       C53          C  0.7772300  0.8891000  0.0000000    0.00000       Uiso       1.00
       C54          C  0.9728400  0.9736300 -0.0241800    0.00000       Uiso       1.00
       H55          H  0.3877730  0.6457830 -0.0028560    0.00000       Uiso       1.00
       H56          H  0.3882530  0.7435890  0.0469130    0.00000       Uiso       1.00
       H57          H  0.2150070  0.7119550  0.3396070    0.00000       Uiso       1.00
       H58          H  0.1874760  0.7405370  0.3480530    0.00000       Uiso       1.00
       H59          H  0.2869460  0.7837210 -0.2985870    0.00000       Uiso       1.00
       H60          H  0.2584400  0.8113151 -0.3108150    0.00000       Uiso       1.00
       H61          H  0.7669720  0.9326280  0.1036870    0.00000       Uiso       1.00
       H62          H  0.7252320  0.9496150  0.0851140    0.00000       Uiso       1.00
       H63          H  0.8363060  0.9528560 -0.3712150    0.00000       Uiso       1.00
       H64          H  0.7802100  0.9240650 -0.3751870    0.00000       Uiso       1.00
       H65          H  0.9454390  0.0221630 -0.0368360    0.00000       Uiso       1.00
       H66          H  0.5666270  0.7361940  0.1949580    0.00000       Uiso       1.00
       H67          H  0.6147170  0.7217379  0.2132570    0.00000       Uiso       1.00
       H68          H  0.5665120  0.8315490 -0.1572670    0.00000       Uiso       1.00
       H69          H  0.6082210  0.8902260 -0.1903970    0.00000       Uiso       1.00
       H70          H  0.7667520  0.8351980 -0.1065530    0.00000       Uiso       1.00
       H71          H  0.7187420  0.7727790 -0.0635890    0.00000       Uiso       1.00
       H72          H  0.8370430  0.8847920  0.3426940    0.00000       Uiso       1.00
       H73          H  0.7809480  0.8572111  0.3600990    0.00000       Uiso       1.00
       H74          H  0.9452941  0.9244851 -0.0068140    0.00000       Uiso       1.00
       H75          H  0.6682130  0.9197670 -0.0471870    0.00000       Uiso       1.00
       H76          H  0.6682410  0.7495471  0.0727150    0.00000       Uiso       1.00
       C77          C  0.0527600  0.9723100 -0.0139400    0.00000       Uiso       1.00
       N78          N  0.1237800  0.8228300 -0.0139100    0.00000       Uiso       1.00
       C79          C  0.1115900  0.8402199  0.0206100    0.00000       Uiso       1.00
       C80          C  0.0811700  0.8231700  0.0659700    0.00000       Uiso       1.00
       C81          C  0.0743100  0.7940800  0.0533100    0.00000       Uiso       1.00
       C82          C  0.0685000  0.8923800 -0.2134900    0.00000       Uiso       1.00
       C83          C  0.0841200  0.8771200 -0.2116800    0.00000       Uiso       1.00
       C84          C  0.9995400  0.9452400 -0.0309800    0.00000       Uiso       1.00
       C85          C  0.9992100  0.9721000 -0.0241800    0.00000       Uiso       1.00
       C86          C  0.2792700  0.6931700  0.0334700    0.00000       Uiso       1.00
       N87          N  0.2084100  0.8428500  0.0327500    0.00000       Uiso       1.00
       C88          C  0.2310600  0.8705100  0.0887700    0.00000       Uiso       1.00
       C89          C  0.2203600  0.8252500  0.0686200    0.00000       Uiso       1.00
       C90          C  0.2503500  0.8419000  0.1512900    0.00000       Uiso       1.00
       C91          C  0.2572300  0.8710200  0.1614700    0.00000       Uiso       1.00
       C92          C  0.2646800  0.7741100 -0.1593100    0.00000       Uiso       1.00
       C93          C  0.2491100  0.7894300 -0.1634300    0.00000       Uiso       1.00
       O94          O  0.2548700  0.6969800  0.0485300    0.00000       Uiso       1.00
       C95          C  0.3324900  0.7200700  0.0082500    0.00000       Uiso       1.00
       C96          C  0.3327500  0.6931600  0.0200500    0.00000       Uiso       1.00
       C97          C  0.3055300  0.7194000  0.0103800    0.00000       Uiso       1.00
       C98          C  0.1284100  0.7678400 -0.0630800    0.00000       Uiso       1.00
       C99          C  0.1736400  0.7785000 -0.0373500    0.00000       Uiso       1.00
      C100          C  0.1570000  0.7484800 -0.1176500    0.00000       Uiso       1.00
      C101          C  0.1279000  0.7416200 -0.1313800    0.00000       Uiso       1.00
      C102          C  0.2246800  0.7341899  0.1994800    0.00000       Uiso       1.00
      C103          C  0.2093900  0.7498000  0.2014400    0.00000       Uiso       1.00
      C104          C  0.2785300  0.6661800  0.0357500    0.00000       Uiso       1.00
      C105          C  0.3054000  0.6658500  0.0241100    0.00000       Uiso       1.00
      C106          C  0.0265300  0.9460199 -0.0304200    0.00000       Uiso       1.00
      N107          N  0.1761400  0.8751799  0.0266600    0.00000       Uiso       1.00
      C108          C  0.2040500  0.8980401  0.0092000    0.00000       Uiso       1.00
      C109          C  0.1588100  0.8873900 -0.0149900    0.00000       Uiso       1.00
      C110          C  0.1759200  0.9177701 -0.0629200    0.00000       Uiso       1.00
      C111          C  0.2050000  0.9246200 -0.0444900    0.00000       Uiso       1.00
      C112          C  0.1064600  0.9307199  0.1890000    0.00000       Uiso       1.00
      C113          C  0.1217300  0.9151000  0.1971200    0.00000       Uiso       1.00
      O114          O  0.0303400  0.9216501 -0.0422700    0.00000       Uiso       1.00
      C115          C  0.0534200  0.9992500 -0.0143400    0.00000       Uiso       1.00
      C116          C  0.1027600  0.7695000 -0.0376700    0.00000       Uiso       1.00
      C117          C  0.2294400  0.8961599  0.0581500    0.00000       Uiso       1.00
      C118          C  0.0797600  0.9192700 -0.0147400    0.00000       Uiso       1.00
      B119          B  0.0626000  0.9363600 -0.0195500    0.00000       Uiso       1.00
      C120          C  0.2046900  0.7941900  0.0166600    0.00000       Uiso       1.00
      C121          C  0.2524100  0.7464200  0.0205800    0.00000       Uiso       1.00
      C122          C  0.2212900  0.7775800  0.0184100    0.00000       Uiso       1.00
      B123          B  0.2695300  0.7292400  0.0215100    0.00000       Uiso       1.00
      C124          C  0.1008900  0.7949500  0.0000000    0.00000       Uiso       1.00
      O125          O  0.0772000  0.9686200  0.0000000    0.00000       Uiso       1.00
      N126          N  0.1560500  0.7904900  0.0000000    0.00000       Uiso       1.00
      O127          O  0.3017900  0.7438400  0.0000000    0.00000       Uiso       1.00
      C128          C  0.1275100  0.8715100  0.0000000    0.00000       Uiso       1.00
      C129          C  0.1109000  0.8881300  0.0000000    0.00000       Uiso       1.00
      C130          C  0.0263700  0.9992100 -0.0241800    0.00000       Uiso       1.00
      H131          H  0.3542170  0.7419900 -0.0028560    0.00000       Uiso       1.00
      H132          H  0.2564110  0.6446640  0.0469130    0.00000       Uiso       1.00
      H133          H  0.2880450  0.5030520  0.3396070    0.00000       Uiso       1.00
      H134          H  0.2594630  0.4469390  0.3480530    0.00000       Uiso       1.00
      H135          H  0.2162790  0.5032250 -0.2985870    0.00000       Uiso       1.00
      H136          H  0.1886850  0.4471250 -0.3108150    0.00000       Uiso       1.00
      H137          H  0.0673720  0.8343430  0.1036870    0.00000       Uiso       1.00
      H138          H  0.0503850  0.7756160  0.0851140    0.00000       Uiso       1.00
      H139          H  0.0471440  0.8834500 -0.3712150    0.00000       Uiso       1.00
      H140          H  0.0759350  0.8561450 -0.3751870    0.00000       Uiso       1.00
      H141          H  0.9778370  0.9232760 -0.0368360    0.00000       Uiso       1.00
      H142          H  0.2638060  0.8304330  0.1949580    0.00000       Uiso       1.00
      H143          H  0.2782620  0.8929800  0.2132570    0.00000       Uiso       1.00
      H144          H  0.1684510  0.7349630 -0.1572670    0.00000       Uiso       1.00
      H145          H  0.1097740  0.7179940 -0.1903970    0.00000       Uiso       1.00
      H146          H  0.1648020  0.9315540 -0.1065530    0.00000       Uiso       1.00
      H147          H  0.2272210  0.9459620 -0.0635890    0.00000       Uiso       1.00
      H148          H  0.1152080  0.9522510  0.3426940    0.00000       Uiso       1.00
      H149          H  0.1427890  0.9237370  0.3600990    0.00000       Uiso       1.00
      H150          H  0.0755150  0.0208090 -0.0068140    0.00000       Uiso       1.00
      H151          H  0.0802330  0.7484460 -0.0471870    0.00000       Uiso       1.00
      H152          H  0.2504530  0.9186940  0.0727150    0.00000       Uiso       1.00
      C153          C  0.0276900  0.0804500 -0.0139400    0.00000       Uiso       1.00
      N154          N  0.1771700  0.3009500 -0.0139100    0.00000       Uiso       1.00
      C155          C  0.1597800  0.2713700  0.0206100    0.00000       Uiso       1.00
      C156          C  0.1768300  0.2580000  0.0659700    0.00000       Uiso       1.00
      C157          C  0.2059200  0.2802300  0.0533100    0.00000       Uiso       1.00
      C158          C  0.1076200  0.1761200 -0.2134900    0.00000       Uiso       1.00
      C159          C  0.1228800  0.2070000 -0.2116800    0.00000       Uiso       1.00
      C160          C  0.0547600  0.0543000 -0.0309800    0.00000       Uiso       1.00
      C161          C  0.0279000  0.0271100 -0.0241800    0.00000       Uiso       1.00
      C162          C  0.3068300  0.5861000  0.0334700    0.00000       Uiso       1.00
      N163          N  0.1571500  0.3655600  0.0327500    0.00000       Uiso       1.00
      C164          C  0.1294900  0.3605500  0.0887700    0.00000       Uiso       1.00
      C165          C  0.1747500  0.3951100  0.0686200    0.00000       Uiso       1.00
      C166          C  0.1581000  0.4084500  0.1512900    0.00000       Uiso       1.00
      C167          C  0.1289800  0.3862100  0.1614700    0.00000       Uiso       1.00
      C168          C  0.2258900  0.4905700 -0.1593100    0.00000       Uiso       1.00
      C169          C  0.2105700  0.4596800 -0.1634300    0.00000       Uiso       1.00
      O170          O  0.3030200  0.5578900  0.0485300    0.00000       Uiso       1.00
      C171          C  0.2799300  0.6124200  0.0082500    0.00000       Uiso       1.00
      C172          C  0.3068400  0.6395900  0.0200500    0.00000       Uiso       1.00
      C173          C  0.2806000  0.5861300  0.0103800    0.00000       Uiso       1.00
      C174          C  0.2321600  0.3605700 -0.0630800    0.00000       Uiso       1.00
      C175          C  0.2215000  0.3951400 -0.0373500    0.00000       Uiso       1.00
      C176          C  0.2515200  0.4085200 -0.1176500    0.00000       Uiso       1.00
      C177          C  0.2583800  0.3862800 -0.1313800    0.00000       Uiso       1.00
      C178          C  0.2658100  0.4904900  0.1994800    0.00000       Uiso       1.00
      C179          C  0.2502000  0.4595900  0.2014400    0.00000       Uiso       1.00
      C180          C  0.3338200  0.6123500  0.0357500    0.00000       Uiso       1.00
      C181          C  0.3341500  0.6395500  0.0241100    0.00000       Uiso       1.00
      C182          C  0.0539800  0.0805100 -0.0304200    0.00000       Uiso       1.00
      N183          N  0.1248200  0.3009600  0.0266600    0.00000       Uiso       1.00
      C184          C  0.1019600  0.3060100  0.0092000    0.00000       Uiso       1.00
      C185          C  0.1126100  0.2714200 -0.0149900    0.00000       Uiso       1.00
      C186          C  0.0822300  0.2581500 -0.0629200    0.00000       Uiso       1.00
      C187          C  0.0753800  0.2803800 -0.0444900    0.00000       Uiso       1.00
      C188          C  0.0692800  0.1757400  0.1890000    0.00000       Uiso       1.00
      C189          C  0.0849000  0.2066300  0.1971200    0.00000       Uiso       1.00
      O190          O  0.0783500  0.1086900 -0.0422700    0.00000       Uiso       1.00
      C191          C  0.0007500  0.0541700 -0.0143400    0.00000       Uiso       1.00
      C192          C  0.2305000  0.3332600 -0.0376700    0.00000       Uiso       1.00
      C193          C  0.1038400  0.3332800  0.0581500    0.00000       Uiso       1.00
      C194          C  0.0807300  0.1604900 -0.0147400    0.00000       Uiso       1.00
      B195          B  0.0636400  0.1262400 -0.0195500    0.00000       Uiso       1.00
      C196          C  0.2058100  0.4105000  0.0166600    0.00000       Uiso       1.00
      C197          C  0.2535800  0.5059900  0.0205800    0.00000       Uiso       1.00
      C198          C  0.2224200  0.4437100  0.0184100    0.00000       Uiso       1.00
      B199          B  0.2707600  0.5402900  0.0215100    0.00000       Uiso       1.00
      C200          C  0.2050500  0.3059400  0.0000000    0.00000       Uiso       1.00
      O201          O  0.0313800  0.1085800  0.0000000    0.00000       Uiso       1.00
      N202          N  0.2095100  0.3655600  0.0000000    0.00000       Uiso       1.00
      O203          O  0.2561600  0.5579500  0.0000000    0.00000       Uiso       1.00
      C204          C  0.1284900  0.2560000  0.0000000    0.00000       Uiso       1.00
      C205          C  0.1118700  0.2227700  0.0000000    0.00000       Uiso       1.00
      C206          C  0.0007900  0.0271600 -0.0241800    0.00000       Uiso       1.00
      H207          H  0.2580100  0.6122270 -0.0028560    0.00000       Uiso       1.00
      H208          H  0.3553360  0.6117470  0.0469130    0.00000       Uiso       1.00
      H209          H  0.4969480  0.7849929  0.3396070    0.00000       Uiso       1.00
      H210          H  0.5530610  0.8125240  0.3480530    0.00000       Uiso       1.00
      H211          H  0.4967750  0.7130540 -0.2985870    0.00000       Uiso       1.00
      H212          H  0.5528750  0.7415599 -0.3108150    0.00000       Uiso       1.00
      H213          H  0.1656570  0.2330280  0.1036870    0.00000       Uiso       1.00
      H214          H  0.2243840  0.2747680  0.0851140    0.00000       Uiso       1.00
      H215          H  0.1165500  0.1636940 -0.3712150    0.00000       Uiso       1.00
      H216          H  0.1438550  0.2197900 -0.3751870    0.00000       Uiso       1.00
      H217          H  0.0767240  0.0545610 -0.0368360    0.00000       Uiso       1.00
      H218          H  0.1695670  0.4333730  0.1949580    0.00000       Uiso       1.00
      H219          H  0.1070200  0.3852830  0.2132570    0.00000       Uiso       1.00
      H220          H  0.2650370  0.4334880 -0.1572670    0.00000       Uiso       1.00
      H221          H  0.2820060  0.3917790 -0.1903970    0.00000       Uiso       1.00
      H222          H  0.0684460  0.2332480 -0.1065530    0.00000       Uiso       1.00
      H223          H  0.0540380  0.2812580 -0.0635890    0.00000       Uiso       1.00
      H224          H  0.0477490  0.1629570  0.3426940    0.00000       Uiso       1.00
      H225          H  0.0762630  0.2190520  0.3600990    0.00000       Uiso       1.00
      H226          H  0.9791910  0.0547060 -0.0068140    0.00000       Uiso       1.00
      H227          H  0.2515540  0.3317860 -0.0471870    0.00000       Uiso       1.00
      H228          H  0.0813060  0.3317590  0.0727150    0.00000       Uiso       1.00
      H229          H  0.1720510  0.8523840  0.0678780    0.00000       Uiso       1.00
      H230          H  0.1658750  0.8142419  0.0685010    0.00000       Uiso       1.00
      H231          H  0.6848890  0.8519160  0.9549560    0.00000       Uiso       1.00
      H232          H  0.6531880  0.8139820 -0.0272800    0.00000       Uiso       1.00
      H233          H  0.1607940  0.3468120 -0.0272800    0.00000       Uiso       1.00
      H234          H  0.1670270  0.3151100  0.9549560    0.00000       Uiso       1.00
