data_Tp-Stb
_audit_creation_date              0000-00-00
_audit_creation_method            'LanYouShi'
_symmetry_space_group_name_H-M    'P1'
_cell_length_a                    30.5000000
_cell_length_b                    3.4919000
_cell_length_c                    30.5000000
_cell_angle_alpha                 90.0000000
_cell_angle_beta                  120.0000000
_cell_angle_gamma                 90.0000000
loop_
_atom_site_label
_atom_site_type_symbol
_atom_site_fract_x
_atom_site_fract_y
_atom_site_fract_z
_atom_site_U_iso_or_equiv
_atom_site_adp_type
_atom_site_occupancy
        O1          O  0.5856910  0.0000000  0.3387490    0.00000       Uiso       1.00
        N2          N  0.6472730  0.0000000  0.4377770    0.00000       Uiso       1.00
        C3          C  0.6267930  0.0000000  0.3388910    0.00000       Uiso       1.00
        C4          C  0.6879900  0.0000000  0.4350950    0.00000       Uiso       1.00
        C5          C  0.6279970  0.0000000  0.4669820    0.00000       Uiso       1.00
        C6          C  0.6492940  0.0000000  0.5194480    0.00000       Uiso       1.00
        C7          C  0.6147320  0.0000000  0.5370910    0.00000       Uiso       1.00
        C8          C  0.5618040  0.0000000  0.5016240    0.00000       Uiso       1.00
        C9          C  0.5430000  0.0000000  0.4495810    0.00000       Uiso       1.00
       C10          C  0.5757930  0.0000000  0.4328150    0.00000       Uiso       1.00
       C11          C  0.6762530  0.0000000  0.3832200    0.00000       Uiso       1.00
       H12          H  0.7232300  0.0000000  0.4670350    0.00000       Uiso       1.00
       H13          H  0.6875510  0.0000000  0.5431790    0.00000       Uiso       1.00
       H14          H  0.6211100  0.0000000  0.4048010    0.00000       Uiso       1.00
       H15          H  0.5583350  0.0000000  0.3943170    0.00000       Uiso       1.00
       H16          H  0.6281750  0.0000000  0.5752640    0.00000       Uiso       1.00
       H17          H  0.5064450  0.0000000  0.4213300    0.00000       Uiso       1.00
       O18          O  0.7573940  0.0000000  0.4153010    0.00000       Uiso       1.00
       N19          N  0.7954740  0.0000000  0.3543580    0.00000       Uiso       1.00
       C20          C  0.7166460  0.0000000  0.3741450    0.00000       Uiso       1.00
       C21          C  0.7521650  0.0000000  0.3133430    0.00000       Uiso       1.00
       C22          C  0.8441320  0.0000000  0.3748620    0.00000       Uiso       1.00
       C23          C  0.8767490  0.0000000  0.3549610    0.00000       Uiso       1.00
       C24          C  0.9288530  0.0000000  0.3904820    0.00000       Uiso       1.00
       C25          C  0.9425720  0.0000000  0.4420550    0.00000       Uiso       1.00
       C26          C  0.9100660  0.0000000  0.4616900    0.00000       Uiso       1.00
       C27          C  0.8609540  0.0000000  0.4271400    0.00000       Uiso       1.00
       C28          C  0.7117890  0.0000000  0.3247940    0.00000       Uiso       1.00
       H29          H  0.7490180  0.0000000  0.2781730    0.00000       Uiso       1.00
       H30          H  0.8631930  0.0000000  0.3168690    0.00000       Uiso       1.00
       H31          H  0.7881770  0.0000000  0.3801190    0.00000       Uiso       1.00
       H32          H  0.8394580  0.0000000  0.4438560    0.00000       Uiso       1.00
       H33          H  0.9553870  0.0000000  0.3793310    0.00000       Uiso       1.00
       H34          H  0.9193560  0.0000000  0.4996310    0.00000       Uiso       1.00
       O35          O  0.6627550  0.0000000  0.2435740    0.00000       Uiso       1.00
       N36          N  0.5638090  0.0000000  0.2059010    0.00000       Uiso       1.00
       C37          C  0.6623520  0.0000000  0.2843800    0.00000       Uiso       1.00
       C38          C  0.5661660  0.0000000  0.2492330    0.00000       Uiso       1.00
       C39          C  0.5351720  0.0000000  0.1573640    0.00000       Uiso       1.00
       C40          C  0.4825170  0.0000000  0.1257070    0.00000       Uiso       1.00
       C41          C  0.4648330  0.0000000  0.0734200    0.00000       Uiso       1.00
       C42          C  0.5018370  0.0000000  0.0585800    0.00000       Uiso       1.00
       C43          C  0.5541580  0.0000000  0.0901700    0.00000       Uiso       1.00
       C44          C  0.5699250  0.0000000  0.1396520    0.00000       Uiso       1.00
       C45          C  0.6179460  0.0000000  0.2894720    0.00000       Uiso       1.00
       H46          H  0.5341800  0.0000000  0.2524470    0.00000       Uiso       1.00
       H47          H  0.4586390  0.0000000  0.1400530    0.00000       Uiso       1.00
       H48          H  0.5967790  0.0000000  0.2128270    0.00000       Uiso       1.00
       H49          H  0.6082700  0.0000000  0.1607940    0.00000       Uiso       1.00
       H50          H  0.4269510  0.0000000  0.0475310    0.00000       Uiso       1.00
       H51          H  0.5820340  0.0000000  0.0798700    0.00000       Uiso       1.00
       C52          C  0.5265540  0.0000000  0.5166490    0.00000       Uiso       1.00
       C53          C  0.9834110  0.0000000  0.4790470    0.00000       Uiso       1.00
       C54          C  0.4965390  0.0000000  0.0171620    0.00000       Uiso       1.00
       O55          O  0.4143090  0.0000000  0.6612510    0.00000       Uiso       1.00
       N56          N  0.3527270  0.0000000  0.5622230    0.00000       Uiso       1.00
       C57          C  0.3732070  0.0000000  0.6611090    0.00000       Uiso       1.00
       C58          C  0.3120100  0.0000000  0.5649050    0.00000       Uiso       1.00
       C59          C  0.3720030  0.0000000  0.5330180    0.00000       Uiso       1.00
       C60          C  0.3507060  0.0000000  0.4805520    0.00000       Uiso       1.00
       C61          C  0.3852680  0.0000000  0.4629090    0.00000       Uiso       1.00
       C62          C  0.4381960  0.0000000  0.4983760    0.00000       Uiso       1.00
       C63          C  0.4570000  0.0000000  0.5504190    0.00000       Uiso       1.00
       C64          C  0.4242070  0.0000000  0.5671850    0.00000       Uiso       1.00
       C65          C  0.3237470  0.0000000  0.6167799    0.00000       Uiso       1.00
       H66          H  0.2767700  0.0000000  0.5329650    0.00000       Uiso       1.00
       H67          H  0.3124490  0.0000000  0.4568210    0.00000       Uiso       1.00
       H68          H  0.3788900  0.0000000  0.5951990    0.00000       Uiso       1.00
       H69          H  0.4416650  0.0000000  0.6056830    0.00000       Uiso       1.00
       H70          H  0.3718250  0.0000000  0.4247360    0.00000       Uiso       1.00
       H71          H  0.4935550  0.0000000  0.5786700    0.00000       Uiso       1.00
       O72          O  0.2426060  0.0000000  0.5846990    0.00000       Uiso       1.00
       N73          N  0.2045260  0.0000000  0.6456420    0.00000       Uiso       1.00
       C74          C  0.2833540  0.0000000  0.6258551    0.00000       Uiso       1.00
       C75          C  0.2478350  0.0000000  0.6866570    0.00000       Uiso       1.00
       C76          C  0.1558680  0.0000000  0.6251380    0.00000       Uiso       1.00
       C77          C  0.1232510  0.0000000  0.6450390    0.00000       Uiso       1.00
       C78          C  0.0711470  0.0000000  0.6095180    0.00000       Uiso       1.00
       C79          C  0.0574280  0.0000000  0.5579450    0.00000       Uiso       1.00
       C80          C  0.0899340  0.0000000  0.5383100    0.00000       Uiso       1.00
       C81          C  0.1390460  0.0000000  0.5728600    0.00000       Uiso       1.00
       C82          C  0.2882110  0.0000000  0.6752060    0.00000       Uiso       1.00
       H83          H  0.2509820  0.0000000  0.7218270    0.00000       Uiso       1.00
       H84          H  0.1368070  0.0000000  0.6831310    0.00000       Uiso       1.00
       H85          H  0.2118230  0.0000000  0.6198810    0.00000       Uiso       1.00
       H86          H  0.1605420  0.0000000  0.5561440    0.00000       Uiso       1.00
       H87          H  0.0446130  0.0000000  0.6206690    0.00000       Uiso       1.00
       H88          H  0.0806440  0.0000000  0.5003690    0.00000       Uiso       1.00
       O89          O  0.3372450  0.0000000  0.7564260    0.00000       Uiso       1.00
       N90          N  0.4361910  0.0000000  0.7940990    0.00000       Uiso       1.00
       C91          C  0.3376480  0.0000000  0.7156200    0.00000       Uiso       1.00
       C92          C  0.4338340  0.0000000  0.7507671    0.00000       Uiso       1.00
       C93          C  0.4648280  0.0000000  0.8426359    0.00000       Uiso       1.00
       C94          C  0.5174830  0.0000000  0.8742930    0.00000       Uiso       1.00
       C95          C  0.5351670  0.0000000  0.9265800    0.00000       Uiso       1.00
       C96          C  0.4981630  0.0000000  0.9414200    0.00000       Uiso       1.00
       C97          C  0.4458420  0.0000000  0.9098300    0.00000       Uiso       1.00
       C98          C  0.4300750  0.0000000  0.8603480    0.00000       Uiso       1.00
       C99          C  0.3820540  0.0000000  0.7105280    0.00000       Uiso       1.00
      H100          H  0.4658200  0.0000000  0.7475530    0.00000       Uiso       1.00
      H101          H  0.5413610  0.0000000  0.8599470    0.00000       Uiso       1.00
      H102          H  0.4032210  0.0000000  0.7871730    0.00000       Uiso       1.00
      H103          H  0.3917300  0.0000000  0.8392060    0.00000       Uiso       1.00
      H104          H  0.5730490  0.0000000  0.9524691    0.00000       Uiso       1.00
      H105          H  0.4179660  0.0000000  0.9201300    0.00000       Uiso       1.00
      C106          C  0.4734460  0.0000000  0.4833510    0.00000       Uiso       1.00
      C107          C  0.0165890  0.0000000  0.5209530    0.00000       Uiso       1.00
      C108          C  0.5034610  0.0000000  0.9828380    0.00000       Uiso       1.00
      H109          H  0.5430730  0.0000000  0.5547290    0.00000       Uiso       1.00
      H110          H  0.4569270  0.0000000  0.4452710    0.00000       Uiso       1.00
