data_TpTG-I
_audit_creation_date              0000-00-00
_audit_creation_method            'LanYouShi'
_symmetry_space_group_name_H-M    'P1'
_cell_length_a                    10.5001001
_cell_length_b                    10.5001001
_cell_length_c                    3.3000000
_cell_angle_alpha                 90.0000000
_cell_angle_beta                  90.0000000
_cell_angle_gamma                 120.0000000
loop_
_atom_site_label
_atom_site_type_symbol
_atom_site_fract_x
_atom_site_fract_y
_atom_site_fract_z
_atom_site_U_iso_or_equiv
_atom_site_adp_type
_atom_site_occupancy
        O1          O  0.6076055  0.8908327  0.5000000    0.00000       Uiso       1.00
        O2          O  0.1091688  0.7167743  0.5000000    0.00000       Uiso       1.00
        O3          O  0.2832272  0.3923960  0.5000000    0.00000       Uiso       1.00
        C1          C  0.4771752  0.7864463  0.5000000    0.00000       Uiso       1.00
        C2          C  0.2135553  0.6907305  0.5000000    0.00000       Uiso       1.00
        C3          C  0.3092711  0.5228264  0.5000000    0.00000       Uiso       1.00
        C4          C  0.4563640  0.6424520  0.5000000    0.00000       Uiso       1.00
        C5          C  0.3575495  0.8139136  0.5000000    0.00000       Uiso       1.00
        C6          C  0.1860879  0.5436375  0.5000000    0.00000       Uiso       1.00
        C7          C  0.0427851  0.4181176  0.5000000    0.00000       Uiso       1.00
        C8          C  0.5818838  0.6246690  0.5000000    0.00000       Uiso       1.00
        C9          C  0.3753326  0.9572164  0.5000000    0.00000       Uiso       1.00
        N1          N  0.5704668  0.4914804  0.5000000    0.00000       Uiso       1.00
        N2          N  0.5085211  0.0789864  0.5000000    0.00000       Uiso       1.00
        N3          N  0.9210151  0.4295347  0.5000000    0.00000       Uiso       1.00
        N4          N  0.7871467  0.3186449  0.5000000    0.00000       Uiso       1.00
        N5          N  0.6813566  0.4685019  0.5000000    0.00000       Uiso       1.00
        N6          N  0.5314996  0.2128548  0.5000000    0.00000       Uiso       1.00
       C10          C  0.6666677  0.3333338  0.5000000    0.00000       Uiso       1.00
        H1          H  0.2848698  0.9708986  0.5000000    0.00000       Uiso       1.00
        H2          H  0.0291030  0.3139727  0.5000000    0.00000       Uiso       1.00
        H3          H  0.6860288  0.7151318  0.5000000    0.00000       Uiso       1.00
        H4          H  0.7695841  0.2188120  0.5000000    0.00000       Uiso       1.00
        H5          H  0.7811894  0.5507721  0.5000000    0.00000       Uiso       1.00
        H6          H  0.4492294  0.2304174  0.5000000    0.00000       Uiso       1.00
        H7          H  0.5914239  0.0619802  0.5000000    0.00000       Uiso       1.00
        H8          H  0.9380214  0.5294437  0.5000000    0.00000       Uiso       1.00
        H9          H  0.4705577  0.4085776  0.5000000    0.00000       Uiso       1.00
        I1          I  0.0000000  0.0000000  0.0000000    0.00000       Uiso       1.00
