data_Tp-Ttba
_audit_creation_date              0000-00-00
_audit_creation_method            'LanYouShi'
_symmetry_space_group_name_H-M    'P1'
_cell_length_a                    25.2000008
_cell_length_b                    25.2000008
_cell_length_c                    3.4000001
_cell_angle_alpha                 90.0000000
_cell_angle_beta                  90.0000000
_cell_angle_gamma                 120.0000000
loop_
_atom_site_label
_atom_site_type_symbol
_atom_site_fract_x
_atom_site_fract_y
_atom_site_fract_z
_atom_site_U_iso_or_equiv
_atom_site_adp_type
_atom_site_occupancy
       xx1          C  0.3609100  0.6310600  0.0000000    0.00000       Uiso       1.00
       xx2          C  0.3905600  0.5979900  0.0000000    0.00000       Uiso       1.00
       xx3          N  0.3671300  0.5398700  0.0000000    0.00000       Uiso       1.00
       xx4          C  0.4066300  0.5129200  0.0000000    0.00000       Uiso       1.00
       xx5          C  0.4170000  0.4244000  0.0000000    0.00000       Uiso       1.00
       xx6          C  0.4807600  0.4627400  0.0000000    0.00000       Uiso       1.00
       xx7          C  0.5051800  0.5233700  0.0000000    0.00000       Uiso       1.00
       xx8          C  0.4684600  0.5490300  0.0000000    0.00000       Uiso       1.00
       xx9          C  0.5201700  0.4373400  0.0000000    0.00000       Uiso       1.00
      xx10          C  0.4913900  0.3714100  0.0000000    0.00000       Uiso       1.00
      xx11          C  0.5284200  0.3460200  0.0000000    0.00000       Uiso       1.00
      xx12          C  0.5908300  0.3833000  0.0000000    0.00000       Uiso       1.00
      xx13          C  0.6161100  0.4453400  0.0000000    0.00000       Uiso       1.00
      xx14          C  0.5790800  0.4707300  0.0000000    0.00000       Uiso       1.00
      xx15          C  0.6295800  0.3574500  0.0000000    0.00000       Uiso       1.00
      xx16          C  0.3960300 -0.3064500  0.0000000    0.00000       Uiso       1.00
      xx17          N  0.6039300  0.2949800  0.0000000    0.00000       Uiso       1.00
      xx18          O  0.4548600 -0.2827400  0.0000000    0.00000       Uiso       1.00
      xx19          C  0.3786600  0.4498000  0.0000000    0.00000       Uiso       1.00
      xx20          H  0.3963200  0.3725100  0.0000000    0.00000       Uiso       1.00
      xx21          H  0.5571000  0.5543700  0.0000000    0.00000       Uiso       1.00
      xx22          H  0.4900900  0.6010200  0.0000000    0.00000       Uiso       1.00
      xx23          H  0.4392900  0.3420600  0.0000000    0.00000       Uiso       1.00
      xx24          H  0.5072900  0.2940800  0.0000000    0.00000       Uiso       1.00
      xx25          H  0.6680500  0.4761200  0.0000000    0.00000       Uiso       1.00
      xx26          H  0.6016400  0.5228100  0.0000000    0.00000       Uiso       1.00
      xx27          H  0.3265400  0.4207700  0.0000000    0.00000       Uiso       1.00
      xx28          C  0.3689400 -0.2701500  0.0000000    0.00000       Uiso       1.00
      xx29          C  0.4020100 -0.2074300  0.0000000    0.00000       Uiso       1.00
      xx30          N  0.4601300 -0.1727400  0.0000000    0.00000       Uiso       1.00
      xx31          C  0.4870800 -0.1062900  0.0000000    0.00000       Uiso       1.00
      xx32          C  0.5756000 -0.0074000  0.0000000    0.00000       Uiso       1.00
      xx33          C  0.5372600  0.0180200  0.0000000    0.00000       Uiso       1.00
      xx34          C  0.4766300 -0.0181900  0.0000000    0.00000       Uiso       1.00
      xx35          C  0.4509700 -0.0805700  0.0000000    0.00000       Uiso       1.00
      xx36          C  0.5626600  0.0828300  0.0000000    0.00000       Uiso       1.00
      xx37          C  0.6285900  0.1199800  0.0000000    0.00000       Uiso       1.00
      xx38          C  0.6539800  0.1824000  0.0000000    0.00000       Uiso       1.00
      xx39          C  0.6167000  0.2075300  0.0000000    0.00000       Uiso       1.00
      xx40          C  0.5546600  0.1707700  0.0000000    0.00000       Uiso       1.00
      xx41          C  0.5292700  0.1083500  0.0000000    0.00000       Uiso       1.00
      xx42          C  0.6425500  0.2721300  0.0000000    0.00000       Uiso       1.00
      xx43          C  1.3064500  0.7024800  0.0000000    0.00000       Uiso       1.00
      xx44          N  0.7050200  0.3089500  0.0000000    0.00000       Uiso       1.00
      xx45          O  1.2827400  0.7376000  0.0000000    0.00000       Uiso       1.00
      xx46          C  0.5502000 -0.0711400  0.0000000    0.00000       Uiso       1.00
      xx47          H  0.6274900  0.0238100  0.0000000    0.00000       Uiso       1.00
      xx48          H  0.4456300  0.0027300  0.0000000    0.00000       Uiso       1.00
      xx49          H  0.3989800 -0.1109300  0.0000000    0.00000       Uiso       1.00
      xx50          H  0.6579400  0.0972300  0.0000000    0.00000       Uiso       1.00
      xx51          H  0.7059200  0.2132100  0.0000000    0.00000       Uiso       1.00
      xx52          H  0.5238800  0.1919300  0.0000000    0.00000       Uiso       1.00
      xx53          H  0.4771900  0.0788300  0.0000000    0.00000       Uiso       1.00
      xx54          H  0.5792300 -0.0942300  0.0000000    0.00000       Uiso       1.00
      xx55          C  1.2701499  0.6390900  0.0000000    0.00000       Uiso       1.00
      xx56          C  1.2074300  0.6094400  0.0000000    0.00000       Uiso       1.00
      xx57          N  1.1727400  0.6328700  0.0000000    0.00000       Uiso       1.00
      xx58          C  1.1062900  0.5933700  0.0000000    0.00000       Uiso       1.00
      xx59          C  1.0074000  0.5830000  0.0000000    0.00000       Uiso       1.00
      xx60          C  0.9819800  0.5192400  0.0000000    0.00000       Uiso       1.00
      xx61          C  1.0181900  0.4948200  0.0000000    0.00000       Uiso       1.00
      xx62          C  1.0805700  0.5315400  0.0000000    0.00000       Uiso       1.00
      xx63          C  0.9171700  0.4798300  0.0000000    0.00000       Uiso       1.00
      xx64          C  0.8800200  0.5086100  0.0000000    0.00000       Uiso       1.00
      xx65          C  0.8176000  0.4715800  0.0000000    0.00000       Uiso       1.00
      xx66          C  0.7924700  0.4091700  0.0000000    0.00000       Uiso       1.00
      xx67          C  0.8292301  0.3838900  0.0000000    0.00000       Uiso       1.00
      xx68          C  0.8916500  0.4209200  0.0000000    0.00000       Uiso       1.00
      xx69          C  0.7278700  0.3704200  0.0000000    0.00000       Uiso       1.00
      xx70          C  0.2975200  0.6039700  0.0000000    0.00000       Uiso       1.00
      xx71          N  0.6910500  0.3960700  0.0000000    0.00000       Uiso       1.00
      xx72          O  0.2624000  0.5451400  0.0000000    0.00000       Uiso       1.00
      xx73          C  1.0711401  0.6213400  0.0000000    0.00000       Uiso       1.00
      xx74          H  0.9761900  0.6036800  0.0000000    0.00000       Uiso       1.00
      xx75          H  0.9972700  0.4429000  0.0000000    0.00000       Uiso       1.00
      xx76          H  1.1109300  0.5099100  0.0000000    0.00000       Uiso       1.00
      xx77          H  0.9027700  0.5607100  0.0000000    0.00000       Uiso       1.00
      xx78          H  0.7867900  0.4927100  0.0000000    0.00000       Uiso       1.00
      xx79          H  0.8080700  0.3319500  0.0000000    0.00000       Uiso       1.00
      xx80          H  0.9211701  0.3983600  0.0000000    0.00000       Uiso       1.00
      xx81          H  1.0942301  0.6734600  0.0000000    0.00000       Uiso       1.00
