data_TT-COF-FF
_audit_creation_date              0000-00-00
_audit_creation_method            'LanYouShi'
_symmetry_space_group_name_H-M    'P1'
_cell_length_a                    32.8400002
_cell_length_b                    32.8400002
_cell_length_c                    3.4500000
_cell_angle_alpha                 90.0000000
_cell_angle_beta                  90.0000000
_cell_angle_gamma                 120.0000000
loop_
_atom_site_label
_atom_site_type_symbol
_atom_site_fract_x
_atom_site_fract_y
_atom_site_fract_z
_atom_site_U_iso_or_equiv
_atom_site_adp_type
_atom_site_occupancy
        O1          O  0.3862700  0.5447400  0.5000000    0.00000       Uiso       1.00
        C2          C  0.3361000  0.5809800  0.5000000    0.00000       Uiso       1.00
        C3          C  0.3349300  0.6232901  0.5000000    0.00000       Uiso       1.00
        C4          C  0.3794400  0.5830400  0.5000000    0.00000       Uiso       1.00
        B5          B  0.4377300  0.5690000  0.5000000    0.00000       Uiso       1.00
        C6          C  0.4659200  0.5426600  0.5000000    0.00000       Uiso       1.00
        O7          O  0.5397800  0.3796600  0.5000000    0.00000       Uiso       1.00
        C8          C  0.5790200  0.3322300  0.5000000    0.00000       Uiso       1.00
        C9          C  0.6222900  0.3333330  0.5000000    0.00000       Uiso       1.00
       C10          C  0.5792100  0.3746800  0.5000000    0.00000       Uiso       1.00
       S11          S  0.5266300  0.5721900  0.5000000    0.00000       Uiso       1.00
       C12          C  0.5219700  0.5183900  0.5000000    0.00000       Uiso       1.00
       C13          C  0.4439600  0.4938900  0.5000000    0.00000       Uiso       1.00
       H14          H  0.3059600  0.5462720  0.5000000    0.00000       Uiso       1.00
       H15          H  0.5449550  0.3011790  0.5000000    0.00000       Uiso       1.00
       H16          H  0.4064390  0.4696040  0.5000000    0.00000       Uiso       1.00
       O17          O  0.4552600  0.8415300  0.5000000    0.00000       Uiso       1.00
       C18          C  0.4190200  0.7551200  0.5000000    0.00000       Uiso       1.00
       C19          C  0.3767100  0.7116400  0.5000000    0.00000       Uiso       1.00
       C20          C  0.4169600  0.7964000  0.5000000    0.00000       Uiso       1.00
       B21          B  0.4310000  0.8687300  0.5000000    0.00000       Uiso       1.00
       C22          C  0.4573400  0.9232600  0.5000000    0.00000       Uiso       1.00
       O23          O  0.6203400  0.1601200  0.5000000    0.00000       Uiso       1.00
       C24          C  0.6677700  0.2467900  0.5000000    0.00000       Uiso       1.00
       C25          C  0.6666670  0.2889570  0.5000000    0.00000       Uiso       1.00
       C26          C  0.6253200  0.2045300  0.5000000    0.00000       Uiso       1.00
       S27          S  0.4278100  0.9544400  0.5000000    0.00000       Uiso       1.00
       C28          C  0.4816100  0.0035800  0.5000000    0.00000       Uiso       1.00
       C29          C  0.5061100  0.9500700  0.5000000    0.00000       Uiso       1.00
       H30          H  0.4537280  0.7596880  0.5000000    0.00000       Uiso       1.00
       H31          H  0.6988210  0.2437760  0.5000000    0.00000       Uiso       1.00
       H32          H  0.5303960  0.9368350  0.5000000    0.00000       Uiso       1.00
       O33          O  0.1584700  0.6137301  0.5000000    0.00000       Uiso       1.00
       C34          C  0.2448800  0.6639000  0.5000000    0.00000       Uiso       1.00
       C35          C  0.2883600  0.6650700  0.5000000    0.00000       Uiso       1.00
       C36          C  0.2036000  0.6205600  0.5000000    0.00000       Uiso       1.00
       B37          B  0.1312700  0.5622700  0.5000000    0.00000       Uiso       1.00
       C38          C  0.0767400  0.5340800  0.5000000    0.00000       Uiso       1.00
       O39          O  0.8398800  0.4602200  0.5000000    0.00000       Uiso       1.00
       C40          C  0.7532100  0.4209800  0.5000000    0.00000       Uiso       1.00
       C41          C  0.7110430  0.3777100  0.5000000    0.00000       Uiso       1.00
       C42          C  0.7954700  0.4207900  0.5000000    0.00000       Uiso       1.00
       S43          S  0.0455600  0.4733700  0.5000000    0.00000       Uiso       1.00
       C44          C  0.9964200  0.4780300  0.5000000    0.00000       Uiso       1.00
       C45          C  0.0499300  0.5560400  0.5000000    0.00000       Uiso       1.00
       H46          H  0.2403120  0.6940400  0.5000000    0.00000       Uiso       1.00
       H47          H  0.7562240  0.4550450  0.5000000    0.00000       Uiso       1.00
       H48          H  0.0631650  0.5935610  0.5000000    0.00000       Uiso       1.00
       O49          O  0.6137300  0.4552600  0.5000000    0.00000       Uiso       1.00
       C50          C  0.6639000  0.4190200  0.5000000    0.00000       Uiso       1.00
       C51          C  0.6650700  0.3767100  0.5000000    0.00000       Uiso       1.00
       C52          C  0.6205600  0.4169600  0.5000000    0.00000       Uiso       1.00
       B53          B  0.5622700  0.4310000  0.5000000    0.00000       Uiso       1.00
       C54          C  0.5340800  0.4573400  0.5000000    0.00000       Uiso       1.00
       O55          O  0.4602200  0.6203400  0.5000000    0.00000       Uiso       1.00
       C56          C  0.4209800  0.6677700  0.5000000    0.00000       Uiso       1.00
       C57          C  0.3777100  0.6666670  0.5000000    0.00000       Uiso       1.00
       C58          C  0.4207900  0.6253200  0.5000000    0.00000       Uiso       1.00
       S59          S  0.4733700  0.4278100  0.5000000    0.00000       Uiso       1.00
       C60          C  0.4780300  0.4816100  0.5000000    0.00000       Uiso       1.00
       C61          C  0.5560400  0.5061100  0.5000000    0.00000       Uiso       1.00
       H62          H  0.6940400  0.4537280  0.5000000    0.00000       Uiso       1.00
       H63          H  0.4550450  0.6988210  0.5000000    0.00000       Uiso       1.00
       H64          H  0.5935610  0.5303960  0.5000000    0.00000       Uiso       1.00
       O65          O  0.5447400  0.1584700  0.5000000    0.00000       Uiso       1.00
       C66          C  0.5809800  0.2448800  0.5000000    0.00000       Uiso       1.00
       C67          C  0.6232900  0.2883600  0.5000000    0.00000       Uiso       1.00
       C68          C  0.5830400  0.2036000  0.5000000    0.00000       Uiso       1.00
       B69          B  0.5690000  0.1312700  0.5000000    0.00000       Uiso       1.00
       C70          C  0.5426600  0.0767400  0.5000000    0.00000       Uiso       1.00
       O71          O  0.3796600  0.8398800  0.5000000    0.00000       Uiso       1.00
       C72          C  0.3322300  0.7532100  0.5000000    0.00000       Uiso       1.00
       C73          C  0.3333330  0.7110430  0.5000000    0.00000       Uiso       1.00
       C74          C  0.3746800  0.7954700  0.5000000    0.00000       Uiso       1.00
       S75          S  0.5721900  0.0455600  0.5000000    0.00000       Uiso       1.00
       C76          C  0.5183900  0.9964200  0.5000000    0.00000       Uiso       1.00
       C77          C  0.4938900  0.0499300  0.5000000    0.00000       Uiso       1.00
       H78          H  0.5462720  0.2403120  0.5000000    0.00000       Uiso       1.00
       H79          H  0.3011790  0.7562230  0.5000000    0.00000       Uiso       1.00
       H80          H  0.4696040  0.0631650  0.5000000    0.00000       Uiso       1.00
       O81          O  0.8415300  0.3862700  0.5000000    0.00000       Uiso       1.00
       C82          C  0.7551200  0.3361000  0.5000000    0.00000       Uiso       1.00
       C83          C  0.7116400  0.3349300  0.5000000    0.00000       Uiso       1.00
       C84          C  0.7964000  0.3794400  0.5000000    0.00000       Uiso       1.00
       B85          B  0.8687300  0.4377300  0.5000000    0.00000       Uiso       1.00
       C86          C  0.9232600  0.4659200  0.5000000    0.00000       Uiso       1.00
       O87          O  0.1601200  0.5397800  0.5000000    0.00000       Uiso       1.00
       C88          C  0.2467900  0.5790201  0.5000000    0.00000       Uiso       1.00
       C89          C  0.2889570  0.6222900  0.5000000    0.00000       Uiso       1.00
       C90          C  0.2045300  0.5792100  0.5000000    0.00000       Uiso       1.00
       S91          S  0.9544400  0.5266300  0.5000000    0.00000       Uiso       1.00
       C92          C  0.0035800  0.5219700  0.5000000    0.00000       Uiso       1.00
       C93          C  0.9500700  0.4439600  0.5000000    0.00000       Uiso       1.00
       H94          H  0.7596880  0.3059600  0.5000000    0.00000       Uiso       1.00
       H95          H  0.2437760  0.5449550  0.5000000    0.00000       Uiso       1.00
       H96          H  0.9368350  0.4064390  0.5000000    0.00000       Uiso       1.00
