data_TTF-COF
_audit_creation_date              0000-00-00
_audit_creation_method            'LanYouShi'
_symmetry_space_group_name_H-M    'P1'
_cell_length_a                    25.6026993
_cell_length_b                    24.3640995
_cell_length_c                    5.5999999
_cell_angle_alpha                 90.0000000
_cell_angle_beta                  90.0000000
_cell_angle_gamma                 61.5877991
loop_
_atom_site_label
_atom_site_type_symbol
_atom_site_fract_x
_atom_site_fract_y
_atom_site_fract_z
_atom_site_U_iso_or_equiv
_atom_site_adp_type
_atom_site_occupancy
        C1          C  0.3569730  0.4725850  0.8900840    0.00000       Uiso       1.00
        N2          N  0.3712190  0.5259930  0.8885179    0.00000       Uiso       1.00
        C3          C  0.4350290  0.5129820  0.8903340    0.00000       Uiso       1.00
        C4          C  0.4491790  0.5677240  0.8924040    0.00000       Uiso       1.00
        C5          C  0.5142031  0.5547240  0.8955440    0.00000       Uiso       1.00
        H6          H  0.3944490  0.4224080  0.8917810    0.00000       Uiso       1.00
        H7          H  0.4116380  0.6176690  0.8917950    0.00000       Uiso       1.00
        H8          H  0.5247470  0.5952710  0.8974729    0.00000       Uiso       1.00
        C9          C  0.6430550  0.5274190  0.8953460    0.00000       Uiso       1.00
       N10          N  0.6287750  0.4740250  0.8964020    0.00000       Uiso       1.00
       C11          C  0.5649640  0.4870190  0.8955540    0.00000       Uiso       1.00
       C12          C  0.5508180  0.4322620  0.8936641    0.00000       Uiso       1.00
       C13          C  0.4857870  0.4452710  0.8907280    0.00000       Uiso       1.00
       H14          H  0.6056070  0.5776150  0.8947970    0.00000       Uiso       1.00
       H15          H  0.5883500  0.3823240  0.8939990    0.00000       Uiso       1.00
       H16          H  0.4752390  0.4047280  0.8887910    0.00000       Uiso       1.00
       C17          C  0.3569730  0.1704600  0.8953420    0.00000       Uiso       1.00
       N18          N  0.3712200  0.1028050  0.8969080    0.00000       Uiso       1.00
       C19          C  0.4350300  0.0520060  0.8950930    0.00000       Uiso       1.00
       C20          C  0.4491790  0.9831159  0.8930230    0.00000       Uiso       1.00
       C21          C  0.5142031  0.9310910  0.8898840    0.00000       Uiso       1.00
       H22          H  0.3944490  0.1831610  0.8936460    0.00000       Uiso       1.00
       H23          H  0.4116380  0.9707120  0.8936320    0.00000       Uiso       1.00
       H24          H  0.5247470  0.8800010  0.8879550    0.00000       Uiso       1.00
       C25          C  0.6430551  0.8295450  0.8900840    0.00000       Uiso       1.00
       N26          N  0.6287750  0.8972190  0.8890280    0.00000       Uiso       1.00
       C27          C  0.5649640  0.9480350  0.8898750    0.00000       Uiso       1.00
       C28          C  0.5508190  0.0169370  0.8917640    0.00000       Uiso       1.00
       C29          C  0.4857880  0.0689590  0.8947000    0.00000       Uiso       1.00
       H30          H  0.6056070  0.8167971  0.8906320    0.00000       Uiso       1.00
       H31          H  0.5883500  0.0293440  0.8914301    0.00000       Uiso       1.00
       H32          H  0.4752400  0.1200500  0.8966370    0.00000       Uiso       1.00
       S33          S  0.0712190  0.4048870  0.8937500    0.00000       Uiso       1.00
       C34          C  0.0300720  0.4849730  0.8927140    0.00000       Uiso       1.00
       C35          C  0.9699560  0.5150310  0.8927160    0.00000       Uiso       1.00
       S36          S  0.9288080  0.4760940  0.8937530    0.00000       Uiso       1.00
       S37          S  0.9288079  0.5951170  0.8916810    0.00000       Uiso       1.00
       S38          S  0.0712190  0.5239100  0.8916770    0.00000       Uiso       1.00
       C39          C  0.1379330  0.4038030  0.8931879    0.00000       Uiso       1.00
       C40          C  0.1379330  0.4582810  0.8922390    0.00000       Uiso       1.00
       C41          C  0.8620940  0.5417230  0.8931900    0.00000       Uiso       1.00
       C42          C  0.8620940  0.5962010  0.8922420    0.00000       Uiso       1.00
       C43          C  0.1960160  0.3413950  0.8937680    0.00000       Uiso       1.00
       C44          C  0.2090320  0.2981070  0.7079610    0.00000       Uiso       1.00
       C45          C  0.2619440  0.2416110  0.7107570    0.00000       Uiso       1.00
       C46          C  0.3023890  0.2277660  0.8990530    0.00000       Uiso       1.00
       C47          C  0.2894340  0.2709550  1.0846500    0.00000       Uiso       1.00
       C48          C  0.2365410  0.3274570  1.0820270    0.00000       Uiso       1.00
       H49          H  0.1783370  0.3079770  0.5610120    0.00000       Uiso       1.00
       H50          H  0.2714170  0.2086560  0.5663200    0.00000       Uiso       1.00
       H51          H  0.3202870  0.2608420  1.2311400    0.00000       Uiso       1.00
       H52          H  0.2271360  0.3603700  1.2266580    0.00000       Uiso       1.00
       C53          C  0.8040120  0.5373970  0.8937710    0.00000       Uiso       1.00
       C54          C  0.7909960  0.5074680  1.0808530    0.00000       Uiso       1.00
       C55          C  0.7380841  0.5038810  1.0791030    0.00000       Uiso       1.00
       C56          C  0.6976390  0.5301330  0.8905901    0.00000       Uiso       1.00
       C57          C  0.7105940  0.5600250  0.7037210    0.00000       Uiso       1.00
       C58          C  0.7634870  0.5636380  0.7052980    0.00000       Uiso       1.00
       H59          H  0.8216900  0.4869150  1.2279890    0.00000       Uiso       1.00
       H60          H  0.7286100  0.4806650  1.2245170    0.00000       Uiso       1.00
       H61          H  0.6797410  0.5804950  0.5570500    0.00000       Uiso       1.00
       H62          H  0.7728919  0.5868790  0.5596890    0.00000       Uiso       1.00
       C63          C  0.8040120  0.6586090  0.8916600    0.00000       Uiso       1.00
       C64          C  0.7909960  0.7015550  0.7045780    0.00000       Uiso       1.00
       C65          C  0.7380840  0.7580540  0.7063280    0.00000       Uiso       1.00
       C66          C  0.6976389  0.7722461  0.8948401    0.00000       Uiso       1.00
       C67          C  0.7105930  0.7294000  1.0817090    0.00000       Uiso       1.00
       C68          C  0.7634870  0.6728940  1.0801330    0.00000       Uiso       1.00
       H69          H  0.8216910  0.6914130  0.5574430    0.00000       Uiso       1.00
       H70          H  0.7286110  0.7907430  0.5609130    0.00000       Uiso       1.00
       H71          H  0.6797410  0.7397820  1.2283790    0.00000       Uiso       1.00
       H72          H  0.7728920  0.6402480  1.2257420    0.00000       Uiso       1.00
       C73          C  0.1960150  0.4626070  0.8916580    0.00000       Uiso       1.00
       C74          C  0.2090320  0.4928790  1.0774660    0.00000       Uiso       1.00
       C75          C  0.2619440  0.4964620  1.0746700    0.00000       Uiso       1.00
       C76          C  0.3023880  0.4698630  0.8863730    0.00000       Uiso       1.00
       C77          C  0.2894340  0.4396290  0.7007760    0.00000       Uiso       1.00
       C78          C  0.2365400  0.4360200  0.7034000    0.00000       Uiso       1.00
       H79          H  0.1783370  0.5137030  1.2244149    0.00000       Uiso       1.00
       H80          H  0.2714170  0.5199450  1.2191060    0.00000       Uiso       1.00
       H81          H  0.3202860  0.4188890  0.5542860    0.00000       Uiso       1.00
       H82          H  0.2271360  0.4125110  0.5587680    0.00000       Uiso       1.00
