data_TThPP
_audit_creation_date              0000-00-00
_audit_creation_method            'LanYouShi'
_symmetry_space_group_name_H-M    'P1'
_cell_length_a                    24.4206009
_cell_length_b                    6.7645001
_cell_length_c                    24.4213009
_cell_angle_alpha                 90.0000000
_cell_angle_beta                  81.9116974
_cell_angle_gamma                 90.0000000
loop_
_atom_site_label
_atom_site_type_symbol
_atom_site_fract_x
_atom_site_fract_y
_atom_site_fract_z
_atom_site_U_iso_or_equiv
_atom_site_adp_type
_atom_site_occupancy
        C1          C  0.4742800  0.5000000  0.4899320    0.00000       Uiso       1.00
        C2          C  0.0100680  0.5000000  0.0257190    0.00000       Uiso       1.00
        C3          C  0.5257190  0.5000000  0.5100660    0.00000       Uiso       1.00
        C4          C  0.9899319  0.5000000  0.9742800    0.00000       Uiso       1.00
        C5          C  0.5870620  0.5000000  0.5747570    0.00000       Uiso       1.00
        C6          C  0.9252390  0.5000000  0.9129390    0.00000       Uiso       1.00
        C7          C  0.4129370  0.5000000  0.4252410    0.00000       Uiso       1.00
        C8          C  0.0747610  0.5000000  0.0870590    0.00000       Uiso       1.00
        C9          C  0.5321500  0.5000000  0.5660260    0.00000       Uiso       1.00
       C10          C  0.9339710  0.5000000  0.9678500    0.00000       Uiso       1.00
       C11          C  0.4678500  0.5000000  0.4339730    0.00000       Uiso       1.00
       C12          C  0.0660290  0.5000000  0.0321490    0.00000       Uiso       1.00
       C13          C  0.6230500  0.5000000  0.5253440    0.00000       Uiso       1.00
       C14          C  0.9746530  0.5000000  0.8769530    0.00000       Uiso       1.00
       C15          C  0.3769500  0.5000000  0.4746540    0.00000       Uiso       1.00
       C16          C  0.0253470  0.5000000  0.1230460    0.00000       Uiso       1.00
       C17          C  0.9401290  0.5000000  0.6206560    0.00000       Uiso       1.00
       C18          C  0.8793439  0.5000000  0.5598800    0.00000       Uiso       1.00
       C19          C  0.0598710  0.5000000  0.3793420    0.00000       Uiso       1.00
       C20          C  0.1206560  0.5000000  0.4401180    0.00000       Uiso       1.00
       C21          C  0.8869550  0.5000000  0.6504050    0.00000       Uiso       1.00
       C22          C  0.8495930  0.5000000  0.6130510    0.00000       Uiso       1.00
       C23          C  0.1130450  0.5000000  0.3495940    0.00000       Uiso       1.00
       C24          C  0.1504060  0.5000000  0.3869480    0.00000       Uiso       1.00
       H25          H  0.8766900  0.5000000  0.6924309    0.00000       Uiso       1.00
       H26          H  0.8075650  0.5000000  0.6233150    0.00000       Uiso       1.00
       H27          H  0.1233100  0.5000000  0.3075680    0.00000       Uiso       1.00
       H28          H  0.1924350  0.5000000  0.3766840    0.00000       Uiso       1.00
       N29          N  0.0570690  0.5000000  0.5570770    0.00000       Uiso       1.00
       N30          N  0.9429311  0.5000000  0.4429210    0.00000       Uiso       1.00
       C31          C  0.0432720  0.5000000  0.6128430    0.00000       Uiso       1.00
       C32          C  0.8871640  0.5000000  0.4567290    0.00000       Uiso       1.00
       C33          C  0.9567280  0.5000000  0.3871560    0.00000       Uiso       1.00
       C34          C  0.1128360  0.5000000  0.5432700    0.00000       Uiso       1.00
       C35          C  0.0926200  0.5000000  0.6355590    0.00000       Uiso       1.00
       C36          C  0.8644370  0.5000000  0.4073880    0.00000       Uiso       1.00
       C37          C  0.9073800  0.5000000  0.3644390    0.00000       Uiso       1.00
       C38          C  0.1355630  0.5000000  0.5926110    0.00000       Uiso       1.00
       H39          H  0.0969780  0.5000000  0.6765850    0.00000       Uiso       1.00
       H40          H  0.8234070  0.5000000  0.4030390    0.00000       Uiso       1.00
       H41          H  0.9030220  0.5000000  0.3234140    0.00000       Uiso       1.00
       H42          H  0.1765920  0.5000000  0.5969600    0.00000       Uiso       1.00
       C43          C  0.9898740  0.5000000  0.6440750    0.00000       Uiso       1.00
       C44          C  0.8559340  0.5000000  0.5101290    0.00000       Uiso       1.00
       C45          C  0.0101250  0.5000000  0.3559240    0.00000       Uiso       1.00
       C46          C  0.1440650  0.5000000  0.4898690    0.00000       Uiso       1.00
       C47          C  0.9858590  0.5000000  0.7023670    0.00000       Uiso       1.00
       C48          C  0.7976420  0.5000000  0.5141450    0.00000       Uiso       1.00
       C49          C  0.0141410  0.5000000  0.2976320    0.00000       Uiso       1.00
       C50          C  0.2023580  0.5000000  0.4858540    0.00000       Uiso       1.00
       C51          C  0.9839681  0.3198160  0.7317900    0.00000       Uiso       1.00
       C52          C  0.7682170  0.6801830  0.5160350    0.00000       Uiso       1.00
       C53          C  0.0160320  0.3198160  0.2682090    0.00000       Uiso       1.00
       C54          C  0.2317830  0.6801830  0.4839640    0.00000       Uiso       1.00
       C55          C  0.0160320  0.6801851  0.2682090    0.00000       Uiso       1.00
       C56          C  0.2317830  0.3198180  0.4839640    0.00000       Uiso       1.00
       C57          C  0.9839681  0.6801851  0.7317900    0.00000       Uiso       1.00
       C58          C  0.7682170  0.3198180  0.5160350    0.00000       Uiso       1.00
       H59          H  0.9854080  0.1879680  0.7110970    0.00000       Uiso       1.00
       H60          H  0.7889150  0.8120200  0.5145960    0.00000       Uiso       1.00
       H61          H  0.0145910  0.1879680  0.2889020    0.00000       Uiso       1.00
       H62          H  0.2110850  0.8120200  0.4854030    0.00000       Uiso       1.00
       H63          H  0.0145910  0.8120320  0.2889020    0.00000       Uiso       1.00
       H64          H  0.2110850  0.1879800  0.4854030    0.00000       Uiso       1.00
       H65          H  0.9854080  0.8120320  0.7110970    0.00000       Uiso       1.00
       H66          H  0.7889150  0.1879800  0.5145960    0.00000       Uiso       1.00
       C67          C  0.9802810  0.3198960  0.7898240    0.00000       Uiso       1.00
       C68          C  0.7101800  0.6801060  0.5197200    0.00000       Uiso       1.00
       C69          C  0.0197190  0.3198960  0.2101740    0.00000       Uiso       1.00
       C70          C  0.2898190  0.6801060  0.4802790    0.00000       Uiso       1.00
       C71          C  0.0197190  0.6801050  0.2101740    0.00000       Uiso       1.00
       C72          C  0.2898190  0.3198950  0.4802790    0.00000       Uiso       1.00
       C73          C  0.9802810  0.6801050  0.7898240    0.00000       Uiso       1.00
       C74          C  0.7101800  0.3198950  0.5197200    0.00000       Uiso       1.00
       H75          H  0.9792240  0.1882540  0.8105790    0.00000       Uiso       1.00
       H76          H  0.6894260  0.8117490  0.5207760    0.00000       Uiso       1.00
       H77          H  0.0207750  0.1882540  0.1894200    0.00000       Uiso       1.00
       H78          H  0.3105730  0.8117490  0.4792230    0.00000       Uiso       1.00
       H79          H  0.0207750  0.8117470  0.1894200    0.00000       Uiso       1.00
       H80          H  0.3105730  0.1882510  0.4792230    0.00000       Uiso       1.00
       H81          H  0.9792240  0.8117470  0.8105790    0.00000       Uiso       1.00
       H82          H  0.6894260  0.1882510  0.5207760    0.00000       Uiso       1.00
       C83          C  0.9783110  0.5000000  0.8192040    0.00000       Uiso       1.00
       C84          C  0.6808000  0.5000000  0.5216880    0.00000       Uiso       1.00
       C85          C  0.0216880  0.5000000  0.1807940    0.00000       Uiso       1.00
       C86          C  0.3192000  0.5000000  0.4783110    0.00000       Uiso       1.00
       H87          H  0.5994280  0.5000000  0.6130490    0.00000       Uiso       1.00
       H88          H  0.4999350  0.5000000  0.5976690    0.00000       Uiso       1.00
       H89          H  0.8869460  0.5000000  0.9005740    0.00000       Uiso       1.00
       H90          H  0.9023260  0.5000000  0.0000650    0.00000       Uiso       1.00
       H91          H  0.4005720  0.5000000  0.3869500    0.00000       Uiso       1.00
       H92          H  0.5000650  0.5000000  0.4023300    0.00000       Uiso       1.00
       H93          H  0.1130540  0.5000000  0.0994240    0.00000       Uiso       1.00
       H94          H  0.0976740  0.5000000  0.9999330    0.00000       Uiso       1.00
       S95          S  0.4105500  0.5000000  0.5325850    0.00000       Uiso       1.00
       S96          S  0.9674120  0.5000000  0.0894470    0.00000       Uiso       1.00
       S97          S  0.5894490  0.5000000  0.4674130    0.00000       Uiso       1.00
       S98          S  0.0325870  0.5000000  0.9105520    0.00000       Uiso       1.00
       N99          N  0.9332690  0.5000000  0.5667340    0.00000       Uiso       1.00
      N100          N  0.0667310  0.5000000  0.4332650    0.00000       Uiso       1.00
      H101          H  0.9635720  0.5000000  0.5364220    0.00000       Uiso       1.00
      H102          H  0.0364270  0.5000000  0.4635770    0.00000       Uiso       1.00
