data_TTI-COF
_audit_creation_date              0000-00-00
_audit_creation_method            'LanYouShi'
_symmetry_space_group_name_H-M    'P1'
_cell_length_a                    25.8059006
_cell_length_b                    25.8059006
_cell_length_c                    3.5204999
_cell_angle_alpha                 90.0000000
_cell_angle_beta                  90.0000000
_cell_angle_gamma                 120.0000000
loop_
_atom_site_label
_atom_site_type_symbol
_atom_site_fract_x
_atom_site_fract_y
_atom_site_fract_z
_atom_site_U_iso_or_equiv
_atom_site_adp_type
_atom_site_occupancy
        C1          C  0.0214410  0.5583730  0.5000000    0.00000       Uiso       1.00
        N2          N  0.9802669  0.4993140  0.5000000    0.00000       Uiso       1.00
        C3          C  0.4416270  0.4630680  0.5000000    0.00000       Uiso       1.00
        N4          N  0.5006850  0.4809530  0.5000000    0.00000       Uiso       1.00
        C5          C  0.5369310  0.9785580  0.5000000    0.00000       Uiso       1.00
        N6          N  0.5190470  0.0197320  0.5000000    0.00000       Uiso       1.00
        H7          H  0.0074660  0.5890960  0.5000000    0.00000       Uiso       1.00
        H8          H  0.4109040  0.4183700  0.5000000    0.00000       Uiso       1.00
        H9          H  0.5816300  0.9925331  0.5000000    0.00000       Uiso       1.00
       C10          C  0.1247890  0.6412030  0.5000000    0.00000       Uiso       1.00
       C11          C  0.1868250  0.6628870  0.5000000    0.00000       Uiso       1.00
       C12          C  0.8900690  0.4075140  0.5000000    0.00000       Uiso       1.00
       C13          C  0.8271570  0.3733310  0.5000000    0.00000       Uiso       1.00
       C14          C  0.3587970  0.4835850  0.5000000    0.00000       Uiso       1.00
       C15          C  0.3371120  0.5239370  0.5000000    0.00000       Uiso       1.00
       C16          C  0.5924850  0.4825550  0.5000000    0.00000       Uiso       1.00
       C17          C  0.6266680  0.4538260  0.5000000    0.00000       Uiso       1.00
       C18          C  0.5164140  0.8752109  0.5000000    0.00000       Uiso       1.00
       C19          C  0.4760620  0.8131740  0.5000000    0.00000       Uiso       1.00
       C20          C  0.5174440  0.1099300  0.5000000    0.00000       Uiso       1.00
       C21          C  0.5461740  0.1728430  0.5000000    0.00000       Uiso       1.00
       H22          H  0.1101490  0.6714720  0.5000000    0.00000       Uiso       1.00
       H23          H  0.2149740  0.7082360  0.5000000    0.00000       Uiso       1.00
       H24          H  0.9144810  0.3861930  0.5000000    0.00000       Uiso       1.00
       H25          H  0.8076000  0.3276990  0.5000000    0.00000       Uiso       1.00
       H26          H  0.3285270  0.4386760  0.5000000    0.00000       Uiso       1.00
       H27          H  0.2917640  0.5067380  0.5000000    0.00000       Uiso       1.00
       H28          H  0.6138060  0.5282880  0.5000000    0.00000       Uiso       1.00
       H29          H  0.6723000  0.4799010  0.5000000    0.00000       Uiso       1.00
       H30          H  0.5613230  0.8898510  0.5000000    0.00000       Uiso       1.00
       H31          H  0.4932610  0.7850249  0.5000000    0.00000       Uiso       1.00
       H32          H  0.4717110  0.0855180  0.5000000    0.00000       Uiso       1.00
       H33          H  0.5200980  0.1923990  0.5000000    0.00000       Uiso       1.00
       C34          C  0.4331220  0.8936490  0.5000000    0.00000       Uiso       1.00
       C35          C  0.3928260  0.8316011  0.5000000    0.00000       Uiso       1.00
       C36          C  0.6138290  0.1151790  0.5000000    0.00000       Uiso       1.00
       C37          C  0.6425860  0.1781040  0.5000000    0.00000       Uiso       1.00
       C38          C  0.1063500  0.5394720  0.5000000    0.00000       Uiso       1.00
       C39          C  0.1683990  0.5612250  0.5000000    0.00000       Uiso       1.00
       C40          C  0.8848200  0.4986500  0.5000000    0.00000       Uiso       1.00
       C41          C  0.8218950  0.4644820  0.5000000    0.00000       Uiso       1.00
       C42          C  0.4605280  0.5668780  0.5000000    0.00000       Uiso       1.00
       C43          C  0.4387750  0.6071730  0.5000000    0.00000       Uiso       1.00
       C44          C  0.5013500  0.3861700  0.5000000    0.00000       Uiso       1.00
       C45          C  0.5355170  0.3574130  0.5000000    0.00000       Uiso       1.00
       H46          H  0.4162830  0.9221010  0.5000000    0.00000       Uiso       1.00
       H47          H  0.3479900  0.8172090  0.5000000    0.00000       Uiso       1.00
       H48          H  0.6394640  0.0953100  0.5000000    0.00000       Uiso       1.00
       H49          H  0.6883700  0.2016420  0.5000000    0.00000       Uiso       1.00
       H50          H  0.0778990  0.4941820  0.5000000    0.00000       Uiso       1.00
       H51          H  0.1827900  0.5307800  0.5000000    0.00000       Uiso       1.00
       H52          H  0.9046890  0.5441540  0.5000000    0.00000       Uiso       1.00
       H53          H  0.7983570  0.4867280  0.5000000    0.00000       Uiso       1.00
       H54          H  0.5058170  0.5837160  0.5000000    0.00000       Uiso       1.00
       H55          H  0.4692190  0.6520090  0.5000000    0.00000       Uiso       1.00
       H56          H  0.4558450  0.3605350  0.5000000    0.00000       Uiso       1.00
       H57          H  0.5132720  0.3116290  0.5000000    0.00000       Uiso       1.00
       C58          C  0.3727360  0.7273529  0.5000000    0.00000       Uiso       1.00
       C59          C  0.2726460  0.6453830  0.5000000    0.00000       Uiso       1.00
       C60          C  0.3546170  0.6272630  0.5000000    0.00000       Uiso       1.00
       C61          C  0.4956650  0.9165930  0.5000000    0.00000       Uiso       1.00
       C62          C  0.0834060  0.5790710  0.5000000    0.00000       Uiso       1.00
       C63          C  0.4209280  0.5043350  0.5000000    0.00000       Uiso       1.00
       C64          C  0.4133030  0.7898360  0.5000000    0.00000       Uiso       1.00
       C65          C  0.2101630  0.6234660  0.5000000    0.00000       Uiso       1.00
       C66          C  0.3765340  0.5866970  0.5000000    0.00000       Uiso       1.00
       N67          N  0.3921810  0.6873050  0.5000000    0.00000       Uiso       1.00
       N68          N  0.3126940  0.7048750  0.5000000    0.00000       Uiso       1.00
       N69          N  0.2951240  0.6078180  0.5000000    0.00000       Uiso       1.00
       C70          C  0.6385030  0.2718300  0.5000000    0.00000       Uiso       1.00
       C71          C  0.7281700  0.3666730  0.5000000    0.00000       Uiso       1.00
       C72          C  0.6333260  0.3614960  0.5000000    0.00000       Uiso       1.00
       C73          C  0.5507600  0.0803110  0.5000000    0.00000       Uiso       1.00
       C74          C  0.9196890  0.4704490  0.5000000    0.00000       Uiso       1.00
       C75          C  0.5295500  0.4492400  0.5000000    0.00000       Uiso       1.00
       C76          C  0.6094940  0.2084850  0.5000000    0.00000       Uiso       1.00
       C77          C  0.7915140  0.4010090  0.5000000    0.00000       Uiso       1.00
       C78          C  0.5989900  0.3905050  0.5000000    0.00000       Uiso       1.00
       N79          N  0.6070180  0.3009980  0.5000000    0.00000       Uiso       1.00
       N80          N  0.6990010  0.3060190  0.5000000    0.00000       Uiso       1.00
       N81          N  0.6939800  0.3929820  0.5000000    0.00000       Uiso       1.00
