data_TzDa
_audit_creation_date              0000-00-00
_audit_creation_method            'LanYouShi'
_symmetry_space_group_name_H-M    'P1'
_cell_length_a                    36.1921997
_cell_length_b                    36.1921997
_cell_length_c                    3.4398999
_cell_angle_alpha                 90.0000000
_cell_angle_beta                  90.0000000
_cell_angle_gamma                 120.0000000
loop_
_atom_site_label
_atom_site_type_symbol
_atom_site_fract_x
_atom_site_fract_y
_atom_site_fract_z
_atom_site_U_iso_or_equiv
_atom_site_adp_type
_atom_site_occupancy
        O1          O  0.4190200  0.9547600  0.5000000    0.00000       Uiso       1.00
        C2          C  0.4802500  0.9573400  0.5000000    0.00000       Uiso       1.00
        C3          C  0.4641900  0.9153000  0.5000000    0.00000       Uiso       1.00
        C4          C  0.4562400  0.9770600  0.5000000    0.00000       Uiso       1.00
        C5          C  0.3548100  0.7147800  0.5000000    0.00000       Uiso       1.00
        H6          H  0.4064100  0.9235300  0.5000000    0.00000       Uiso       1.00
        H7          H  0.4797800  0.8999300  0.5000000    0.00000       Uiso       1.00
        H8          H  0.5331000  0.9597900  0.5000000    0.00000       Uiso       1.00
        N9          N  0.3785200  0.6910600  0.5000000    0.00000       Uiso       1.00
       N10          N  0.4273600  0.8784000  0.5000000    0.00000       Uiso       1.00
       C11          C  0.4113300  0.8396300  0.5000000    0.00000       Uiso       1.00
       H12          H  0.3197700  0.7552900  0.5000000    0.00000       Uiso       1.00
       C13          C  0.3702800  0.8153200  0.5000000    0.00000       Uiso       1.00
       C14          C  0.3510100  0.7729700  0.5000000    0.00000       Uiso       1.00
       C15          C  0.4128000  0.7746800  0.5000000    0.00000       Uiso       1.00
       C16          C  0.4353000  0.8190100  0.5000000    0.00000       Uiso       1.00
       C17          C  0.3742000  0.7541600  0.5000000    0.00000       Uiso       1.00
       H18          H  0.3572200  0.8318300  0.5000000    0.00000       Uiso       1.00
       H19          H  0.4290100  0.7605300  0.5000000    0.00000       Uiso       1.00
       H20          H  0.4675200  0.8349300  0.5000000    0.00000       Uiso       1.00
       O21          O  0.0452400  0.4642600  0.5000000    0.00000       Uiso       1.00
       C22          C  0.0426600  0.5229100  0.5000000    0.00000       Uiso       1.00
       C23          C  0.0847000  0.5488900  0.5000000    0.00000       Uiso       1.00
       C24          C  0.0229400  0.4791800  0.5000000    0.00000       Uiso       1.00
       C25          C  0.2852200  0.6400300  0.5000000    0.00000       Uiso       1.00
       H26          H  0.0764700  0.4828800  0.5000000    0.00000       Uiso       1.00
       H27          H  0.1000700  0.5798500  0.5000000    0.00000       Uiso       1.00
       H28          H  0.0402100  0.5733100  0.5000000    0.00000       Uiso       1.00
       N29          N  0.3089400  0.6874600  0.5000000    0.00000       Uiso       1.00
       N30          N  0.1216000  0.5489600  0.5000000    0.00000       Uiso       1.00
       C31          C  0.1603700  0.5717000  0.5000000    0.00000       Uiso       1.00
       H32          H  0.2447100  0.5644800  0.5000000    0.00000       Uiso       1.00
       C33          C  0.1846800  0.5549600  0.5000000    0.00000       Uiso       1.00
       C34          C  0.2270300  0.5780400  0.5000000    0.00000       Uiso       1.00
       C35          C  0.2253200  0.6381200  0.5000000    0.00000       Uiso       1.00
       C36          C  0.1809900  0.6162900  0.5000000    0.00000       Uiso       1.00
       C37          C  0.2458400  0.6200400  0.5000000    0.00000       Uiso       1.00
       H38          H  0.1681700  0.5253900  0.5000000    0.00000       Uiso       1.00
       H39          H  0.2394700  0.6684800  0.5000000    0.00000       Uiso       1.00
       H40          H  0.1650700  0.6325900  0.5000000    0.00000       Uiso       1.00
       O41          O  0.5357400  0.5809800  0.5000000    0.00000       Uiso       1.00
       C42          C  0.4770900  0.5197500  0.5000000    0.00000       Uiso       1.00
       C43          C  0.4511100  0.5358100  0.5000000    0.00000       Uiso       1.00
       C44          C  0.5208200  0.5437600  0.5000000    0.00000       Uiso       1.00
       C45          C  0.3599700  0.6451900  0.5000000    0.00000       Uiso       1.00
       H46          H  0.5171200  0.5935900  0.5000000    0.00000       Uiso       1.00
       H47          H  0.4201500  0.5202200  0.5000000    0.00000       Uiso       1.00
       H48          H  0.4266900  0.4669000  0.5000000    0.00000       Uiso       1.00
       N49          N  0.3125400  0.6214800  0.5000000    0.00000       Uiso       1.00
       N50          N  0.4510400  0.5726400  0.5000000    0.00000       Uiso       1.00
       C51          C  0.4283000  0.5886700  0.5000000    0.00000       Uiso       1.00
       H52          H  0.4355200  0.6802300  0.5000000    0.00000       Uiso       1.00
       C53          C  0.4450400  0.6297200  0.5000000    0.00000       Uiso       1.00
       C54          C  0.4219600  0.6489900  0.5000000    0.00000       Uiso       1.00
       C55          C  0.3618800  0.5872000  0.5000000    0.00000       Uiso       1.00
       C56          C  0.3837100  0.5647000  0.5000000    0.00000       Uiso       1.00
       C57          C  0.3799600  0.6258000  0.5000000    0.00000       Uiso       1.00
       H58          H  0.4746100  0.6427800  0.5000000    0.00000       Uiso       1.00
       H59          H  0.3315200  0.5709900  0.5000000    0.00000       Uiso       1.00
       H60          H  0.3674100  0.5324800  0.5000000    0.00000       Uiso       1.00
       O61          O  0.5809800  0.0452400  0.5000000    0.00000       Uiso       1.00
       C62          C  0.5197500  0.0426600  0.5000000    0.00000       Uiso       1.00
       C63          C  0.5358100  0.0847000  0.5000000    0.00000       Uiso       1.00
       C64          C  0.5437600  0.0229400  0.5000000    0.00000       Uiso       1.00
       C65          C  0.6451900  0.2852200  0.5000000    0.00000       Uiso       1.00
       H66          H  0.5935900  0.0764700  0.5000000    0.00000       Uiso       1.00
       H67          H  0.5202200  0.1000700  0.5000000    0.00000       Uiso       1.00
       H68          H  0.4669000  0.0402100  0.5000000    0.00000       Uiso       1.00
       N69          N  0.6214800  0.3089400  0.5000000    0.00000       Uiso       1.00
       N70          N  0.5726400  0.1216000  0.5000000    0.00000       Uiso       1.00
       C71          C  0.5886700  0.1603700  0.5000000    0.00000       Uiso       1.00
       H72          H  0.6802300  0.2447100  0.5000000    0.00000       Uiso       1.00
       C73          C  0.6297200  0.1846800  0.5000000    0.00000       Uiso       1.00
       C74          C  0.6489900  0.2270300  0.5000000    0.00000       Uiso       1.00
       C75          C  0.5872000  0.2253200  0.5000000    0.00000       Uiso       1.00
       C76          C  0.5647000  0.1809900  0.5000000    0.00000       Uiso       1.00
       C77          C  0.6258000  0.2458400  0.5000000    0.00000       Uiso       1.00
       H78          H  0.6427800  0.1681700  0.5000000    0.00000       Uiso       1.00
       H79          H  0.5709900  0.2394700  0.5000000    0.00000       Uiso       1.00
       H80          H  0.5324800  0.1650700  0.5000000    0.00000       Uiso       1.00
       O81          O  0.9547600  0.5357400  0.5000000    0.00000       Uiso       1.00
       C82          C  0.9573400  0.4770900  0.5000000    0.00000       Uiso       1.00
       C83          C  0.9153000  0.4511100  0.5000000    0.00000       Uiso       1.00
       C84          C  0.9770600  0.5208200  0.5000000    0.00000       Uiso       1.00
       C85          C  0.7147800  0.3599700  0.5000000    0.00000       Uiso       1.00
       H86          H  0.9235300  0.5171200  0.5000000    0.00000       Uiso       1.00
       H87          H  0.8999300  0.4201500  0.5000000    0.00000       Uiso       1.00
       H88          H  0.9597900  0.4266900  0.5000000    0.00000       Uiso       1.00
       N89          N  0.6910600  0.3125400  0.5000000    0.00000       Uiso       1.00
       N90          N  0.8784000  0.4510400  0.5000000    0.00000       Uiso       1.00
       C91          C  0.8396300  0.4283000  0.5000000    0.00000       Uiso       1.00
       H92          H  0.7552900  0.4355200  0.5000000    0.00000       Uiso       1.00
       C93          C  0.8153200  0.4450400  0.5000000    0.00000       Uiso       1.00
       C94          C  0.7729700  0.4219600  0.5000000    0.00000       Uiso       1.00
       C95          C  0.7746800  0.3618800  0.5000000    0.00000       Uiso       1.00
       C96          C  0.8190100  0.3837100  0.5000000    0.00000       Uiso       1.00
       C97          C  0.7541600  0.3799600  0.5000000    0.00000       Uiso       1.00
       H98          H  0.8318300  0.4746100  0.5000000    0.00000       Uiso       1.00
       H99          H  0.7605300  0.3315200  0.5000000    0.00000       Uiso       1.00
      H100          H  0.8349300  0.3674100  0.5000000    0.00000       Uiso       1.00
      O101          O  0.4642600  0.4190200  0.5000000    0.00000       Uiso       1.00
      C102          C  0.5229100  0.4802500  0.5000000    0.00000       Uiso       1.00
      C103          C  0.5488900  0.4641900  0.5000000    0.00000       Uiso       1.00
      C104          C  0.4791800  0.4562400  0.5000000    0.00000       Uiso       1.00
      C105          C  0.6400300  0.3548100  0.5000000    0.00000       Uiso       1.00
      H106          H  0.4828800  0.4064100  0.5000000    0.00000       Uiso       1.00
      H107          H  0.5798500  0.4797800  0.5000000    0.00000       Uiso       1.00
      H108          H  0.5733100  0.5331000  0.5000000    0.00000       Uiso       1.00
      N109          N  0.6874600  0.3785200  0.5000000    0.00000       Uiso       1.00
      N110          N  0.5489600  0.4273600  0.5000000    0.00000       Uiso       1.00
      C111          C  0.5717000  0.4113300  0.5000000    0.00000       Uiso       1.00
      H112          H  0.5644800  0.3197700  0.5000000    0.00000       Uiso       1.00
      C113          C  0.5549600  0.3702800  0.5000000    0.00000       Uiso       1.00
      C114          C  0.5780400  0.3510100  0.5000000    0.00000       Uiso       1.00
      C115          C  0.6381200  0.4128000  0.5000000    0.00000       Uiso       1.00
      C116          C  0.6162900  0.4353000  0.5000000    0.00000       Uiso       1.00
      C117          C  0.6200400  0.3742000  0.5000000    0.00000       Uiso       1.00
      H118          H  0.5253900  0.3572200  0.5000000    0.00000       Uiso       1.00
      H119          H  0.6684800  0.4290100  0.5000000    0.00000       Uiso       1.00
      H120          H  0.6325900  0.4675200  0.5000000    0.00000       Uiso       1.00
      C121          C  0.5217900  0.9781100  0.5000000    0.00000       Uiso       1.00
      C122          C  0.0218900  0.5436800  0.5000000    0.00000       Uiso       1.00
      C123          C  0.4563200  0.4782100  0.5000000    0.00000       Uiso       1.00
      C124          C  0.4782100  0.0218900  0.5000000    0.00000       Uiso       1.00
      C125          C  0.9781100  0.4563200  0.5000000    0.00000       Uiso       1.00
      C126          C  0.5436800  0.5217900  0.5000000    0.00000       Uiso       1.00
