data_ZnPc-PPE
_audit_creation_date              0000-00-00
_audit_creation_method            'LanYouShi'
_symmetry_space_group_name_H-M    'P1'
_cell_length_a                    38.5330009
_cell_length_b                    38.5330009
_cell_length_c                    3.3670001
_cell_angle_alpha                 90.0000000
_cell_angle_beta                  90.0000000
_cell_angle_gamma                 90.0000000
loop_
_atom_site_label
_atom_site_type_symbol
_atom_site_fract_x
_atom_site_fract_y
_atom_site_fract_z
_atom_site_U_iso_or_equiv
_atom_site_adp_type
_atom_site_occupancy
       Zn1         Zn  0.5000000  0.5000000  0.5000000    0.00000       Uiso       1.00
        N2          N  0.4483800  0.5000000  0.5000000    0.00000       Uiso       1.00
        B3          B  0.2709580  0.5000000  0.5000000    0.00000       Uiso       1.00
        C4          C  0.2274380  0.5000000  0.5000000    0.00000       Uiso       1.00
        C5          C  0.1505300  0.5000000  0.5000000    0.00000       Uiso       1.00
        C6          C  0.1108660  0.5000000  0.5000000    0.00000       Uiso       1.00
        C7          C  0.0781090  0.5000000  0.5000000    0.00000       Uiso       1.00
        C8          C  0.0384440  0.5000000  0.5000000    0.00000       Uiso       1.00
        N9          N  0.5516200  0.5000000  0.5000000    0.00000       Uiso       1.00
       B10          B  0.7290420  0.5000000  0.5000000    0.00000       Uiso       1.00
       C11          C  0.7725620  0.5000000  0.5000000    0.00000       Uiso       1.00
       C12          C  0.8494700  0.5000000  0.5000000    0.00000       Uiso       1.00
       C13          C  0.8891340  0.5000000  0.5000000    0.00000       Uiso       1.00
       C14          C  0.9218909  0.5000000  0.5000000    0.00000       Uiso       1.00
       C15          C  0.9615560  0.5000000  0.5000000    0.00000       Uiso       1.00
       N16          N  0.5000000  0.4483800  0.5000000    0.00000       Uiso       1.00
       B17          B  0.5000000  0.2709580  0.5000000    0.00000       Uiso       1.00
       C18          C  0.5000000  0.2274380  0.5000000    0.00000       Uiso       1.00
       C19          C  0.5000000  0.1505300  0.5000000    0.00000       Uiso       1.00
       C20          C  0.5000000  0.1108660  0.5000000    0.00000       Uiso       1.00
       C21          C  0.5000000  0.0781090  0.5000000    0.00000       Uiso       1.00
       C22          C  0.5000000  0.0384440  0.5000000    0.00000       Uiso       1.00
       N23          N  0.5000000  0.5516200  0.5000000    0.00000       Uiso       1.00
       B24          B  0.5000000  0.7290420  0.5000000    0.00000       Uiso       1.00
       C25          C  0.5000000  0.7725620  0.5000000    0.00000       Uiso       1.00
       C26          C  0.5000000  0.8494700  0.5000000    0.00000       Uiso       1.00
       C27          C  0.5000000  0.8891340  0.5000000    0.00000       Uiso       1.00
       C28          C  0.5000000  0.9218909  0.5000000    0.00000       Uiso       1.00
       C29          C  0.5000000  0.9615560  0.5000000    0.00000       Uiso       1.00
       N30          N  0.4378640  0.4378640  0.5000000    0.00000       Uiso       1.00
       N31          N  0.5621360  0.5621360  0.5000000    0.00000       Uiso       1.00
       N32          N  0.5621360  0.4378640  0.5000000    0.00000       Uiso       1.00
       N33          N  0.4378640  0.5621360  0.5000000    0.00000       Uiso       1.00
       O34          O  0.2932600  0.4681940  0.5000000    0.00000       Uiso       1.00
       C35          C  0.4266760  0.4716660  0.5000000    0.00000       Uiso       1.00
       C36          C  0.3912990  0.4820080  0.5000000    0.00000       Uiso       1.00
       C37          C  0.3594250  0.4628770  0.5000000    0.00000       Uiso       1.00
       C38          C  0.3274000  0.4819730  0.5000000    0.00000       Uiso       1.00
       C39          C  0.2076160  0.4688530  0.5000000    0.00000       Uiso       1.00
       C40          C  0.1702990  0.4688530  0.5000000    0.00000       Uiso       1.00
       C41          C  0.0186770  0.4688530  0.5000000    0.00000       Uiso       1.00
       H42          H  0.3599040  0.4346710  0.5000000    0.00000       Uiso       1.00
       H43          H  0.2206540  0.4438370  0.5000000    0.00000       Uiso       1.00
       H44          H  0.1561940  0.4444230  0.5000000    0.00000       Uiso       1.00
       H45          H  0.0334700  0.4432320  0.5000000    0.00000       Uiso       1.00
       O46          O  0.7067400  0.5318060  0.5000000    0.00000       Uiso       1.00
       C47          C  0.5733240  0.5283340  0.5000000    0.00000       Uiso       1.00
       C48          C  0.6087010  0.5179920  0.5000000    0.00000       Uiso       1.00
       C49          C  0.6405750  0.5371230  0.5000000    0.00000       Uiso       1.00
       C50          C  0.6726000  0.5180270  0.5000000    0.00000       Uiso       1.00
       C51          C  0.7923840  0.5311470  0.5000000    0.00000       Uiso       1.00
       C52          C  0.8297010  0.5311470  0.5000000    0.00000       Uiso       1.00
       C53          C  0.9813230  0.5311470  0.5000000    0.00000       Uiso       1.00
       H54          H  0.6400960  0.5653280  0.5000000    0.00000       Uiso       1.00
       H55          H  0.7793460  0.5561630  0.5000000    0.00000       Uiso       1.00
       H56          H  0.8438060  0.5555770  0.5000000    0.00000       Uiso       1.00
       H57          H  0.9665310  0.5567680  0.5000000    0.00000       Uiso       1.00
       O58          O  0.5318060  0.2932600  0.5000000    0.00000       Uiso       1.00
       C59          C  0.5283340  0.4266760  0.5000000    0.00000       Uiso       1.00
       C60          C  0.5179920  0.3912990  0.5000000    0.00000       Uiso       1.00
       C61          C  0.5371230  0.3594250  0.5000000    0.00000       Uiso       1.00
       C62          C  0.5180270  0.3274000  0.5000000    0.00000       Uiso       1.00
       C63          C  0.5311470  0.2076160  0.5000000    0.00000       Uiso       1.00
       C64          C  0.5311470  0.1702990  0.5000000    0.00000       Uiso       1.00
       C65          C  0.5311470  0.0186770  0.5000000    0.00000       Uiso       1.00
       H66          H  0.5653280  0.3599040  0.5000000    0.00000       Uiso       1.00
       H67          H  0.5561630  0.2206540  0.5000000    0.00000       Uiso       1.00
       H68          H  0.5555770  0.1561940  0.5000000    0.00000       Uiso       1.00
       H69          H  0.5567680  0.0334700  0.5000000    0.00000       Uiso       1.00
       O70          O  0.4681940  0.7067400  0.5000000    0.00000       Uiso       1.00
       C71          C  0.4716660  0.5733240  0.5000000    0.00000       Uiso       1.00
       C72          C  0.4820080  0.6087010  0.5000000    0.00000       Uiso       1.00
       C73          C  0.4628770  0.6405750  0.5000000    0.00000       Uiso       1.00
       C74          C  0.4819730  0.6726000  0.5000000    0.00000       Uiso       1.00
       C75          C  0.4688530  0.7923840  0.5000000    0.00000       Uiso       1.00
       C76          C  0.4688530  0.8297010  0.5000000    0.00000       Uiso       1.00
       C77          C  0.4688530  0.9813230  0.5000000    0.00000       Uiso       1.00
       H78          H  0.4346710  0.6400960  0.5000000    0.00000       Uiso       1.00
       H79          H  0.4438370  0.7793460  0.5000000    0.00000       Uiso       1.00
       H80          H  0.4444230  0.8438060  0.5000000    0.00000       Uiso       1.00
       H81          H  0.4432320  0.9665310  0.5000000    0.00000       Uiso       1.00
       O82          O  0.7067400  0.4681940  0.5000000    0.00000       Uiso       1.00
       C83          C  0.5733240  0.4716660  0.5000000    0.00000       Uiso       1.00
       C84          C  0.6087010  0.4820080  0.5000000    0.00000       Uiso       1.00
       C85          C  0.6405750  0.4628770  0.5000000    0.00000       Uiso       1.00
       C86          C  0.6726000  0.4819730  0.5000000    0.00000       Uiso       1.00
       C87          C  0.7923840  0.4688530  0.5000000    0.00000       Uiso       1.00
       C88          C  0.8297010  0.4688530  0.5000000    0.00000       Uiso       1.00
       C89          C  0.9813230  0.4688530  0.5000000    0.00000       Uiso       1.00
       H90          H  0.6400960  0.4346710  0.5000000    0.00000       Uiso       1.00
       H91          H  0.7793460  0.4438370  0.5000000    0.00000       Uiso       1.00
       H92          H  0.8438060  0.4444230  0.5000000    0.00000       Uiso       1.00
       H93          H  0.9665310  0.4432320  0.5000000    0.00000       Uiso       1.00
       O94          O  0.2932600  0.5318060  0.5000000    0.00000       Uiso       1.00
       C95          C  0.4266760  0.5283340  0.5000000    0.00000       Uiso       1.00
       C96          C  0.3912990  0.5179920  0.5000000    0.00000       Uiso       1.00
       C97          C  0.3594250  0.5371230  0.5000000    0.00000       Uiso       1.00
       C98          C  0.3274000  0.5180270  0.5000000    0.00000       Uiso       1.00
       C99          C  0.2076160  0.5311470  0.5000000    0.00000       Uiso       1.00
      C100          C  0.1702990  0.5311470  0.5000000    0.00000       Uiso       1.00
      C101          C  0.0186770  0.5311470  0.5000000    0.00000       Uiso       1.00
      H102          H  0.3599040  0.5653280  0.5000000    0.00000       Uiso       1.00
      H103          H  0.2206540  0.5561630  0.5000000    0.00000       Uiso       1.00
      H104          H  0.1561940  0.5555770  0.5000000    0.00000       Uiso       1.00
      H105          H  0.0334700  0.5567680  0.5000000    0.00000       Uiso       1.00
      O106          O  0.4681940  0.2932600  0.5000000    0.00000       Uiso       1.00
      C107          C  0.4716660  0.4266760  0.5000000    0.00000       Uiso       1.00
      C108          C  0.4820080  0.3912990  0.5000000    0.00000       Uiso       1.00
      C109          C  0.4628770  0.3594250  0.5000000    0.00000       Uiso       1.00
      C110          C  0.4819730  0.3274000  0.5000000    0.00000       Uiso       1.00
      C111          C  0.4688530  0.2076160  0.5000000    0.00000       Uiso       1.00
      C112          C  0.4688530  0.1702990  0.5000000    0.00000       Uiso       1.00
      C113          C  0.4688530  0.0186770  0.5000000    0.00000       Uiso       1.00
      H114          H  0.4346710  0.3599040  0.5000000    0.00000       Uiso       1.00
      H115          H  0.4438370  0.2206540  0.5000000    0.00000       Uiso       1.00
      H116          H  0.4444230  0.1561940  0.5000000    0.00000       Uiso       1.00
      H117          H  0.4432320  0.0334700  0.5000000    0.00000       Uiso       1.00
      O118          O  0.5318060  0.7067400  0.5000000    0.00000       Uiso       1.00
      C119          C  0.5283340  0.5733240  0.5000000    0.00000       Uiso       1.00
      C120          C  0.5179920  0.6087010  0.5000000    0.00000       Uiso       1.00
      C121          C  0.5371230  0.6405750  0.5000000    0.00000       Uiso       1.00
      C122          C  0.5180270  0.6726000  0.5000000    0.00000       Uiso       1.00
      C123          C  0.5311470  0.7923840  0.5000000    0.00000       Uiso       1.00
      C124          C  0.5311470  0.8297010  0.5000000    0.00000       Uiso       1.00
      C125          C  0.5311470  0.9813230  0.5000000    0.00000       Uiso       1.00
      H126          H  0.5653280  0.6400960  0.5000000    0.00000       Uiso       1.00
      H127          H  0.5561630  0.7793460  0.5000000    0.00000       Uiso       1.00
      H128          H  0.5555770  0.8438060  0.5000000    0.00000       Uiso       1.00
      H129          H  0.5567680  0.9665310  0.5000000    0.00000       Uiso       1.00
