data_COF-108
_audit_creation_date              0000-00-00
_audit_creation_method            'LanYouShi'
_symmetry_space_group_name_H-M    'P1'
_cell_length_a                    28.4009991
_cell_length_b                    28.4009991
_cell_length_c                    28.4009991
_cell_angle_alpha                 90.0000000
_cell_angle_beta                  90.0000000
_cell_angle_gamma                 90.0000000
loop_
_atom_site_label
_atom_site_type_symbol
_atom_site_fract_x
_atom_site_fract_y
_atom_site_fract_z
_atom_site_U_iso_or_equiv
_atom_site_adp_type
_atom_site_occupancy
        C1          C  0.5888400  0.9047300  0.0352800    0.00000       Uiso       1.00
        C2          C  0.5530900  0.9286100  0.0113500    0.00000       Uiso       1.00
        C3          C  0.7769100  0.8124300  0.1518000    0.00000       Uiso       1.00
        C4          C  0.7072600  0.8489300  0.1172200    0.00000       Uiso       1.00
        H5          H  0.7380000  0.7882000  0.0883900    0.00000       Uiso       1.00
        O6          O  0.6714300  0.8545600  0.0845700    0.00000       Uiso       1.00
        H7          H  0.5419600  0.9146800  0.9777500    0.00000       Uiso       1.00
        C8          C  0.7410100  0.8137300  0.1166300    0.00000       Uiso       1.00
        H9          H  0.3968250  0.0202300  0.1296090    0.00000       Uiso       1.00
       C10          C  0.4111600  0.0952700  0.0352800    0.00000       Uiso       1.00
       C11          C  0.4469100  0.0713900  0.0113500    0.00000       Uiso       1.00
       C12          C  0.2230900  0.1875700  0.1518000    0.00000       Uiso       1.00
       C13          C  0.2927400  0.1510700  0.1172200    0.00000       Uiso       1.00
       H14          H  0.2620000  0.2118000  0.0883900    0.00000       Uiso       1.00
       O15          O  0.3285700  0.1454400  0.0845700    0.00000       Uiso       1.00
       H16          H  0.4580400  0.0853200  0.9777500    0.00000       Uiso       1.00
       C17          C  0.2589900  0.1862700  0.1166300    0.00000       Uiso       1.00
       H18          H  0.6031750  0.9797700  0.1296090    0.00000       Uiso       1.00
       C19          C  0.4111600  0.9047300  0.9647200    0.00000       Uiso       1.00
       C20          C  0.4469100  0.9286100  0.9886500    0.00000       Uiso       1.00
       C21          C  0.2230900  0.8124300  0.8482000    0.00000       Uiso       1.00
       C22          C  0.2927400  0.8489300  0.8827800    0.00000       Uiso       1.00
       H23          H  0.2620000  0.7882000  0.9116100    0.00000       Uiso       1.00
       O24          O  0.3285700  0.8545600  0.9154300    0.00000       Uiso       1.00
       H25          H  0.4580400  0.9146800  0.0222500    0.00000       Uiso       1.00
       C26          C  0.2589900  0.8137300  0.8833700    0.00000       Uiso       1.00
       H27          H  0.6031750  0.0202300  0.8703910    0.00000       Uiso       1.00
       C28          C  0.5888400  0.0952700  0.9647200    0.00000       Uiso       1.00
       C29          C  0.5530900  0.0713900  0.9886500    0.00000       Uiso       1.00
       C30          C  0.7769100  0.1875700  0.8482000    0.00000       Uiso       1.00
       C31          C  0.7072600  0.1510700  0.8827800    0.00000       Uiso       1.00
       H32          H  0.7380000  0.2118000  0.9116100    0.00000       Uiso       1.00
       O33          O  0.6714300  0.1454400  0.9154300    0.00000       Uiso       1.00
       H34          H  0.5419600  0.0853200  0.0222500    0.00000       Uiso       1.00
       C35          C  0.7410100  0.1862700  0.8833700    0.00000       Uiso       1.00
       H36          H  0.3968250  0.9797700  0.8703910    0.00000       Uiso       1.00
       C37          C  0.0352800  0.5888400  0.9047300    0.00000       Uiso       1.00
       C38          C  0.0113500  0.5530900  0.9286100    0.00000       Uiso       1.00
       C39          C  0.1518000  0.7769100  0.8124300    0.00000       Uiso       1.00
       C40          C  0.1172200  0.7072600  0.8489300    0.00000       Uiso       1.00
       H41          H  0.0883900  0.7380000  0.7882000    0.00000       Uiso       1.00
       O42          O  0.0845700  0.6714300  0.8545600    0.00000       Uiso       1.00
       H43          H  0.9777500  0.5419600  0.9146800    0.00000       Uiso       1.00
       C44          C  0.1166300  0.7410100  0.8137300    0.00000       Uiso       1.00
       H45          H  0.1296090  0.3968250  0.0202300    0.00000       Uiso       1.00
       C46          C  0.0352800  0.4111600  0.0952700    0.00000       Uiso       1.00
       C47          C  0.0113500  0.4469100  0.0713900    0.00000       Uiso       1.00
       C48          C  0.1518000  0.2230900  0.1875700    0.00000       Uiso       1.00
       C49          C  0.1172200  0.2927400  0.1510700    0.00000       Uiso       1.00
       H50          H  0.0883900  0.2620000  0.2118000    0.00000       Uiso       1.00
       O51          O  0.0845700  0.3285700  0.1454400    0.00000       Uiso       1.00
       H52          H  0.9777500  0.4580400  0.0853200    0.00000       Uiso       1.00
       C53          C  0.1166300  0.2589900  0.1862700    0.00000       Uiso       1.00
       H54          H  0.1296090  0.6031750  0.9797700    0.00000       Uiso       1.00
       C55          C  0.9647200  0.4111600  0.9047300    0.00000       Uiso       1.00
       C56          C  0.9886500  0.4469100  0.9286100    0.00000       Uiso       1.00
       C57          C  0.8482000  0.2230900  0.8124300    0.00000       Uiso       1.00
       C58          C  0.8827800  0.2927400  0.8489300    0.00000       Uiso       1.00
       H59          H  0.9116100  0.2620000  0.7882000    0.00000       Uiso       1.00
       O60          O  0.9154300  0.3285700  0.8545600    0.00000       Uiso       1.00
       H61          H  0.0222500  0.4580400  0.9146800    0.00000       Uiso       1.00
       C62          C  0.8833700  0.2589900  0.8137300    0.00000       Uiso       1.00
       H63          H  0.8703910  0.6031750  0.0202300    0.00000       Uiso       1.00
       C64          C  0.9647200  0.5888400  0.0952700    0.00000       Uiso       1.00
       C65          C  0.9886500  0.5530900  0.0713900    0.00000       Uiso       1.00
       C66          C  0.8482000  0.7769100  0.1875700    0.00000       Uiso       1.00
       C67          C  0.8827800  0.7072600  0.1510700    0.00000       Uiso       1.00
       H68          H  0.9116100  0.7380000  0.2118000    0.00000       Uiso       1.00
       O69          O  0.9154300  0.6714300  0.1454400    0.00000       Uiso       1.00
       H70          H  0.0222500  0.5419600  0.0853200    0.00000       Uiso       1.00
       C71          C  0.8833700  0.7410100  0.1862700    0.00000       Uiso       1.00
       H72          H  0.8703910  0.3968250  0.9797700    0.00000       Uiso       1.00
       C73          C  0.9047300  0.0352800  0.5888400    0.00000       Uiso       1.00
       C74          C  0.9286100  0.0113500  0.5530900    0.00000       Uiso       1.00
       C75          C  0.8124300  0.1518000  0.7769100    0.00000       Uiso       1.00
       C76          C  0.8489300  0.1172200  0.7072600    0.00000       Uiso       1.00
       H77          H  0.7882000  0.0883900  0.7380000    0.00000       Uiso       1.00
       O78          O  0.8545600  0.0845700  0.6714300    0.00000       Uiso       1.00
       H79          H  0.9146800  0.9777500  0.5419600    0.00000       Uiso       1.00
       C80          C  0.8137300  0.1166300  0.7410100    0.00000       Uiso       1.00
       H81          H  0.0202300  0.1296090  0.3968250    0.00000       Uiso       1.00
       C82          C  0.0952700  0.0352800  0.4111600    0.00000       Uiso       1.00
       C83          C  0.0713900  0.0113500  0.4469100    0.00000       Uiso       1.00
       C84          C  0.1875700  0.1518000  0.2230900    0.00000       Uiso       1.00
       C85          C  0.1510700  0.1172200  0.2927400    0.00000       Uiso       1.00
       H86          H  0.2118000  0.0883900  0.2620000    0.00000       Uiso       1.00
       O87          O  0.1454400  0.0845700  0.3285700    0.00000       Uiso       1.00
       H88          H  0.0853200  0.9777500  0.4580400    0.00000       Uiso       1.00
       C89          C  0.1862700  0.1166300  0.2589900    0.00000       Uiso       1.00
       H90          H  0.9797700  0.1296090  0.6031750    0.00000       Uiso       1.00
       C91          C  0.9047300  0.9647200  0.4111600    0.00000       Uiso       1.00
       C92          C  0.9286100  0.9886500  0.4469100    0.00000       Uiso       1.00
       C93          C  0.8124300  0.8482000  0.2230900    0.00000       Uiso       1.00
       C94          C  0.8489300  0.8827800  0.2927400    0.00000       Uiso       1.00
       H95          H  0.7882000  0.9116100  0.2620000    0.00000       Uiso       1.00
       O96          O  0.8545600  0.9154300  0.3285700    0.00000       Uiso       1.00
       H97          H  0.9146800  0.0222500  0.4580400    0.00000       Uiso       1.00
       C98          C  0.8137300  0.8833700  0.2589900    0.00000       Uiso       1.00
       H99          H  0.0202300  0.8703910  0.6031750    0.00000       Uiso       1.00
      C100          C  0.0952700  0.9647200  0.5888400    0.00000       Uiso       1.00
      C101          C  0.0713900  0.9886500  0.5530900    0.00000       Uiso       1.00
      C102          C  0.1875700  0.8482000  0.7769100    0.00000       Uiso       1.00
      C103          C  0.1510700  0.8827800  0.7072600    0.00000       Uiso       1.00
      H104          H  0.2118000  0.9116100  0.7380000    0.00000       Uiso       1.00
      O105          O  0.1454400  0.9154300  0.6714300    0.00000       Uiso       1.00
      H106          H  0.0853200  0.0222500  0.5419600    0.00000       Uiso       1.00
      C107          C  0.1862700  0.8833700  0.7410100    0.00000       Uiso       1.00
      H108          H  0.9797700  0.8703910  0.3968250    0.00000       Uiso       1.00
      C109          C  0.9047300  0.5888400  0.0352800    0.00000       Uiso       1.00
      C110          C  0.9286100  0.5530900  0.0113500    0.00000       Uiso       1.00
      C111          C  0.8124300  0.7769100  0.1518000    0.00000       Uiso       1.00
      C112          C  0.8489300  0.7072600  0.1172200    0.00000       Uiso       1.00
      H113          H  0.7882000  0.7380000  0.0883900    0.00000       Uiso       1.00
      O114          O  0.8545600  0.6714300  0.0845700    0.00000       Uiso       1.00
      H115          H  0.9146800  0.5419600  0.9777500    0.00000       Uiso       1.00
      C116          C  0.8137300  0.7410100  0.1166300    0.00000       Uiso       1.00
      H117          H  0.0202300  0.3968250  0.1296090    0.00000       Uiso       1.00
      C118          C  0.0952700  0.4111600  0.0352800    0.00000       Uiso       1.00
      C119          C  0.0713900  0.4469100  0.0113500    0.00000       Uiso       1.00
      C120          C  0.1875700  0.2230900  0.1518000    0.00000       Uiso       1.00
      C121          C  0.1510700  0.2927400  0.1172200    0.00000       Uiso       1.00
      H122          H  0.2118000  0.2620000  0.0883900    0.00000       Uiso       1.00
      O123          O  0.1454400  0.3285700  0.0845700    0.00000       Uiso       1.00
      H124          H  0.0853200  0.4580400  0.9777500    0.00000       Uiso       1.00
      C125          C  0.1862700  0.2589900  0.1166300    0.00000       Uiso       1.00
      H126          H  0.9797700  0.6031750  0.1296090    0.00000       Uiso       1.00
      C127          C  0.9047300  0.4111600  0.9647200    0.00000       Uiso       1.00
      C128          C  0.9286100  0.4469100  0.9886500    0.00000       Uiso       1.00
      C129          C  0.8124300  0.2230900  0.8482000    0.00000       Uiso       1.00
      C130          C  0.8489300  0.2927400  0.8827800    0.00000       Uiso       1.00
      H131          H  0.7882000  0.2620000  0.9116100    0.00000       Uiso       1.00
      O132          O  0.8545600  0.3285700  0.9154300    0.00000       Uiso       1.00
      H133          H  0.9146800  0.4580400  0.0222500    0.00000       Uiso       1.00
      C134          C  0.8137300  0.2589900  0.8833700    0.00000       Uiso       1.00
      H135          H  0.0202300  0.6031750  0.8703910    0.00000       Uiso       1.00
      C136          C  0.0952700  0.5888400  0.9647200    0.00000       Uiso       1.00
      C137          C  0.0713900  0.5530900  0.9886500    0.00000       Uiso       1.00
      C138          C  0.1875700  0.7769100  0.8482000    0.00000       Uiso       1.00
      C139          C  0.1510700  0.7072600  0.8827800    0.00000       Uiso       1.00
      H140          H  0.2118000  0.7380000  0.9116100    0.00000       Uiso       1.00
      O141          O  0.1454400  0.6714300  0.9154300    0.00000       Uiso       1.00
      H142          H  0.0853200  0.5419600  0.0222500    0.00000       Uiso       1.00
      C143          C  0.1862700  0.7410100  0.8833700    0.00000       Uiso       1.00
      H144          H  0.9797700  0.3968250  0.8703910    0.00000       Uiso       1.00
      C145          C  0.5888400  0.0352800  0.9047300    0.00000       Uiso       1.00
      C146          C  0.5530900  0.0113500  0.9286100    0.00000       Uiso       1.00
      C147          C  0.7769100  0.1518000  0.8124300    0.00000       Uiso       1.00
      C148          C  0.7072600  0.1172200  0.8489300    0.00000       Uiso       1.00
      H149          H  0.7380000  0.0883900  0.7882000    0.00000       Uiso       1.00
      O150          O  0.6714300  0.0845700  0.8545600    0.00000       Uiso       1.00
      H151          H  0.5419600  0.9777500  0.9146800    0.00000       Uiso       1.00
      C152          C  0.7410100  0.1166300  0.8137300    0.00000       Uiso       1.00
      H153          H  0.3968250  0.1296090  0.0202300    0.00000       Uiso       1.00
      C154          C  0.4111600  0.0352800  0.0952700    0.00000       Uiso       1.00
      C155          C  0.4469100  0.0113500  0.0713900    0.00000       Uiso       1.00
      C156          C  0.2230900  0.1518000  0.1875700    0.00000       Uiso       1.00
      C157          C  0.2927400  0.1172200  0.1510700    0.00000       Uiso       1.00
      H158          H  0.2620000  0.0883900  0.2118000    0.00000       Uiso       1.00
      O159          O  0.3285700  0.0845700  0.1454400    0.00000       Uiso       1.00
      H160          H  0.4580400  0.9777500  0.0853200    0.00000       Uiso       1.00
      C161          C  0.2589900  0.1166300  0.1862700    0.00000       Uiso       1.00
      H162          H  0.6031750  0.1296090  0.9797700    0.00000       Uiso       1.00
      C163          C  0.4111600  0.9647200  0.9047300    0.00000       Uiso       1.00
      C164          C  0.4469100  0.9886500  0.9286100    0.00000       Uiso       1.00
      C165          C  0.2230900  0.8482000  0.8124300    0.00000       Uiso       1.00
      C166          C  0.2927400  0.8827800  0.8489300    0.00000       Uiso       1.00
      H167          H  0.2620000  0.9116100  0.7882000    0.00000       Uiso       1.00
      O168          O  0.3285700  0.9154300  0.8545600    0.00000       Uiso       1.00
      H169          H  0.4580400  0.0222500  0.9146800    0.00000       Uiso       1.00
      C170          C  0.2589900  0.8833700  0.8137300    0.00000       Uiso       1.00
      H171          H  0.6031750  0.8703910  0.0202300    0.00000       Uiso       1.00
      C172          C  0.5888400  0.9647200  0.0952700    0.00000       Uiso       1.00
      C173          C  0.5530900  0.9886500  0.0713900    0.00000       Uiso       1.00
      C174          C  0.7769100  0.8482000  0.1875700    0.00000       Uiso       1.00
      C175          C  0.7072600  0.8827800  0.1510700    0.00000       Uiso       1.00
      H176          H  0.7380000  0.9116100  0.2118000    0.00000       Uiso       1.00
      O177          O  0.6714300  0.9154300  0.1454400    0.00000       Uiso       1.00
      H178          H  0.5419600  0.0222500  0.0853200    0.00000       Uiso       1.00
      C179          C  0.7410100  0.8833700  0.1862700    0.00000       Uiso       1.00
      H180          H  0.3968250  0.8703910  0.9797700    0.00000       Uiso       1.00
      C181          C  0.0352800  0.9047300  0.5888400    0.00000       Uiso       1.00
      C182          C  0.0113500  0.9286100  0.5530900    0.00000       Uiso       1.00
      C183          C  0.1518000  0.8124300  0.7769100    0.00000       Uiso       1.00
      C184          C  0.1172200  0.8489300  0.7072600    0.00000       Uiso       1.00
      H185          H  0.0883900  0.7882000  0.7380000    0.00000       Uiso       1.00
      O186          O  0.0845700  0.8545600  0.6714300    0.00000       Uiso       1.00
      H187          H  0.9777500  0.9146800  0.5419600    0.00000       Uiso       1.00
      C188          C  0.1166300  0.8137300  0.7410100    0.00000       Uiso       1.00
      H189          H  0.1296090  0.0202300  0.3968250    0.00000       Uiso       1.00
      C190          C  0.0352800  0.0952700  0.4111600    0.00000       Uiso       1.00
      C191          C  0.0113500  0.0713900  0.4469100    0.00000       Uiso       1.00
      C192          C  0.1518000  0.1875700  0.2230900    0.00000       Uiso       1.00
      C193          C  0.1172200  0.1510700  0.2927400    0.00000       Uiso       1.00
      H194          H  0.0883900  0.2118000  0.2620000    0.00000       Uiso       1.00
      O195          O  0.0845700  0.1454400  0.3285700    0.00000       Uiso       1.00
      H196          H  0.9777500  0.0853200  0.4580400    0.00000       Uiso       1.00
      C197          C  0.1166300  0.1862700  0.2589900    0.00000       Uiso       1.00
      H198          H  0.1296090  0.9797700  0.6031750    0.00000       Uiso       1.00
      C199          C  0.9647200  0.9047300  0.4111600    0.00000       Uiso       1.00
      C200          C  0.9886500  0.9286100  0.4469100    0.00000       Uiso       1.00
      C201          C  0.8482000  0.8124300  0.2230900    0.00000       Uiso       1.00
      C202          C  0.8827800  0.8489300  0.2927400    0.00000       Uiso       1.00
      H203          H  0.9116100  0.7882000  0.2620000    0.00000       Uiso       1.00
      O204          O  0.9154300  0.8545600  0.3285700    0.00000       Uiso       1.00
      H205          H  0.0222500  0.9146800  0.4580400    0.00000       Uiso       1.00
      C206          C  0.8833700  0.8137300  0.2589900    0.00000       Uiso       1.00
      H207          H  0.8703910  0.0202300  0.6031750    0.00000       Uiso       1.00
      C208          C  0.9647200  0.0952700  0.5888400    0.00000       Uiso       1.00
      C209          C  0.9886500  0.0713900  0.5530900    0.00000       Uiso       1.00
      C210          C  0.8482000  0.1875700  0.7769100    0.00000       Uiso       1.00
      C211          C  0.8827800  0.1510700  0.7072600    0.00000       Uiso       1.00
      H212          H  0.9116100  0.2118000  0.7380000    0.00000       Uiso       1.00
      O213          O  0.9154300  0.1454400  0.6714300    0.00000       Uiso       1.00
      H214          H  0.0222500  0.0853200  0.5419600    0.00000       Uiso       1.00
      C215          C  0.8833700  0.1862700  0.7410100    0.00000       Uiso       1.00
      H216          H  0.8703910  0.9797700  0.3968250    0.00000       Uiso       1.00
      B217          B  0.6488600  0.8971000  0.1029000    0.00000       Uiso       1.00
      C218          C  0.6070200  0.9226401  0.0773600    0.00000       Uiso       1.00
      C219          C  0.5329500  0.9703800  0.0296200    0.00000       Uiso       1.00
      B220          B  0.3511400  0.1029000  0.1029000    0.00000       Uiso       1.00
      C221          C  0.3929800  0.0773600  0.0773600    0.00000       Uiso       1.00
      C222          C  0.4670500  0.0296200  0.0296200    0.00000       Uiso       1.00
      B223          B  0.3511400  0.8971000  0.8971000    0.00000       Uiso       1.00
      C224          C  0.3929800  0.9226401  0.9226401    0.00000       Uiso       1.00
      C225          C  0.4670500  0.9703800  0.9703800    0.00000       Uiso       1.00
      B226          B  0.6488600  0.1029000  0.8971000    0.00000       Uiso       1.00
      C227          C  0.6070200  0.0773600  0.9226401    0.00000       Uiso       1.00
      C228          C  0.5329500  0.0296200  0.9703800    0.00000       Uiso       1.00
      B229          B  0.1029000  0.6488600  0.8971000    0.00000       Uiso       1.00
      C230          C  0.0773600  0.6070200  0.9226401    0.00000       Uiso       1.00
      C231          C  0.0296200  0.5329500  0.9703800    0.00000       Uiso       1.00
      B232          B  0.1029000  0.3511400  0.1029000    0.00000       Uiso       1.00
      C233          C  0.0773600  0.3929800  0.0773600    0.00000       Uiso       1.00
      C234          C  0.0296200  0.4670500  0.0296200    0.00000       Uiso       1.00
      B235          B  0.8971000  0.3511400  0.8971000    0.00000       Uiso       1.00
      C236          C  0.9226401  0.3929800  0.9226401    0.00000       Uiso       1.00
      C237          C  0.9703800  0.4670500  0.9703800    0.00000       Uiso       1.00
      B238          B  0.8971000  0.6488600  0.1029000    0.00000       Uiso       1.00
      C239          C  0.9226401  0.6070200  0.0773600    0.00000       Uiso       1.00
      C240          C  0.9703800  0.5329500  0.0296200    0.00000       Uiso       1.00
      B241          B  0.8971000  0.1029000  0.6488600    0.00000       Uiso       1.00
      C242          C  0.9226401  0.0773600  0.6070200    0.00000       Uiso       1.00
      C243          C  0.9703800  0.0296200  0.5329500    0.00000       Uiso       1.00
      B244          B  0.1029000  0.1029000  0.3511400    0.00000       Uiso       1.00
      C245          C  0.0773600  0.0773600  0.3929800    0.00000       Uiso       1.00
      C246          C  0.0296200  0.0296200  0.4670500    0.00000       Uiso       1.00
      B247          B  0.8971000  0.8971000  0.3511400    0.00000       Uiso       1.00
      C248          C  0.9226401  0.9226401  0.3929800    0.00000       Uiso       1.00
      C249          C  0.9703800  0.9703800  0.4670500    0.00000       Uiso       1.00
      B250          B  0.1029000  0.8971000  0.6488600    0.00000       Uiso       1.00
      C251          C  0.0773600  0.9226401  0.6070200    0.00000       Uiso       1.00
      C252          C  0.0296200  0.9703800  0.5329500    0.00000       Uiso       1.00
      C253          C  0.5000000  0.0000000  0.0000000    0.00000       Uiso       1.00
      C254          C  0.0000000  0.5000000  0.0000000    0.00000       Uiso       1.00
      C255          C  0.0000000  0.0000000  0.5000000    0.00000       Uiso       1.00
