data_COF-18A
_audit_creation_date              0000-00-00
_audit_creation_method            'LanYouShi'
_symmetry_space_group_name_H-M    'P1'
_cell_length_a                    21.4237003
_cell_length_b                    21.4237003
_cell_length_c                    3.5655000
_cell_angle_alpha                 90.0000000
_cell_angle_beta                  90.0000000
_cell_angle_gamma                 120.0000000
loop_
_atom_site_label
_atom_site_type_symbol
_atom_site_fract_x
_atom_site_fract_y
_atom_site_fract_z
_atom_site_U_iso_or_equiv
_atom_site_adp_type
_atom_site_occupancy
        C1          C  0.5671840  0.0000000  0.5000000    0.00000       Uiso       1.00
        C2          C  0.0000000  0.5671840  0.5000000    0.00000       Uiso       1.00
        C3          C  0.4328160  0.4328160  0.5000000    0.00000       Uiso       1.00
        C4          C  0.4328160  0.0000000  0.5000000    0.00000       Uiso       1.00
        C5          C  0.0000000  0.4328160  0.5000000    0.00000       Uiso       1.00
        C6          C  0.5671840  0.5671840  0.5000000    0.00000       Uiso       1.00
        C7          C  0.5650240  0.0644120  0.5000000    0.00000       Uiso       1.00
        C8          C  0.9355870  0.5006120  0.5000000    0.00000       Uiso       1.00
        C9          C  0.4993880  0.4349760  0.5000000    0.00000       Uiso       1.00
       C10          C  0.4349760  0.9355869  0.5000000    0.00000       Uiso       1.00
       C11          C  0.0644120  0.4993880  0.5000000    0.00000       Uiso       1.00
       C12          C  0.5006120  0.5650240  0.5000000    0.00000       Uiso       1.00
       C13          C  0.0644120  0.5650240  0.5000000    0.00000       Uiso       1.00
       C14          C  0.5006120  0.9355869  0.5000000    0.00000       Uiso       1.00
       C15          C  0.4349760  0.4993880  0.5000000    0.00000       Uiso       1.00
       C16          C  0.9355880  0.4349760  0.5000000    0.00000       Uiso       1.00
       C17          C  0.4993880  0.0644120  0.5000000    0.00000       Uiso       1.00
       C18          C  0.5650240  0.5006120  0.5000000    0.00000       Uiso       1.00
       O19          O  0.6212770  0.1321550  0.5000000    0.00000       Uiso       1.00
       O20          O  0.8678450  0.4891220  0.5000000    0.00000       Uiso       1.00
       O21          O  0.5108780  0.3787230  0.5000000    0.00000       Uiso       1.00
       O22          O  0.3787230  0.8678451  0.5000000    0.00000       Uiso       1.00
       O23          O  0.1321550  0.5108780  0.5000000    0.00000       Uiso       1.00
       O24          O  0.4891220  0.6212770  0.5000000    0.00000       Uiso       1.00
       O25          O  0.1321550  0.6212770  0.5000000    0.00000       Uiso       1.00
       O26          O  0.4891220  0.8678451  0.5000000    0.00000       Uiso       1.00
       O27          O  0.3787230  0.5108780  0.5000000    0.00000       Uiso       1.00
       O28          O  0.8678450  0.3787230  0.5000000    0.00000       Uiso       1.00
       O29          O  0.5108780  0.1321550  0.5000000    0.00000       Uiso       1.00
       O30          O  0.6212770  0.4891220  0.5000000    0.00000       Uiso       1.00
       C31          C  0.6284230  0.2568460  0.5000000    0.00000       Uiso       1.00
       C32          C  0.7431540  0.3715770  0.5000000    0.00000       Uiso       1.00
       C33          C  0.6284230  0.3715770  0.5000000    0.00000       Uiso       1.00
       C34          C  0.3715770  0.7431540  0.5000000    0.00000       Uiso       1.00
       C35          C  0.2568460  0.6284230  0.5000000    0.00000       Uiso       1.00
       C36          C  0.3715770  0.6284230  0.5000000    0.00000       Uiso       1.00
       B37          B  0.5882680  0.1765350  0.5000000    0.00000       Uiso       1.00
       B38          B  0.8234650  0.4117320  0.5000000    0.00000       Uiso       1.00
       B39          B  0.5882680  0.4117320  0.5000000    0.00000       Uiso       1.00
       B40          B  0.4117320  0.8234650  0.5000000    0.00000       Uiso       1.00
       B41          B  0.1765350  0.5882670  0.5000000    0.00000       Uiso       1.00
       B42          B  0.4117320  0.5882670  0.5000000    0.00000       Uiso       1.00
       C43          C  0.2954270  0.5908530  0.5000000    0.00000       Uiso       1.00
       C44          C  0.4091470  0.7045730  0.5000000    0.00000       Uiso       1.00
       C45          C  0.2954270  0.7045730  0.5000000    0.00000       Uiso       1.00
       C46          C  0.7045730  0.4091470  0.5000000    0.00000       Uiso       1.00
       C47          C  0.5908530  0.2954270  0.5000000    0.00000       Uiso       1.00
       C48          C  0.7045730  0.2954270  0.5000000    0.00000       Uiso       1.00
       H49          H  0.3852910  0.3852910  0.5000000    0.00000       Uiso       1.00
       H50          H  0.6147090  0.0000000  0.5000000    0.00000       Uiso       1.00
       H51          H -0.0000000  0.6147090  0.5000000    0.00000       Uiso       1.00
       H52          H  0.6147090  0.6147090  0.5000000    0.00000       Uiso       1.00
       H53          H  0.3852910  0.0000000  0.5000000    0.00000       Uiso       1.00
       H54          H -0.0000000  0.3852910  0.5000000    0.00000       Uiso       1.00
       H55          H  0.4647040  0.7323520  0.5000000    0.00000       Uiso       1.00
       H56          H  0.2676480  0.7323520  0.5000000    0.00000       Uiso       1.00
       H57          H  0.2676480  0.5352960  0.5000000    0.00000       Uiso       1.00
       H58          H  0.5352960  0.2676480  0.5000000    0.00000       Uiso       1.00
       H59          H  0.7323520  0.2676480  0.5000000    0.00000       Uiso       1.00
       H60          H  0.7323520  0.4647040  0.5000000    0.00000       Uiso       1.00
