data_COF-320-298K
_audit_creation_date              0000-00-00
_audit_creation_method            'LanYouShi'
_symmetry_space_group_name_H-M    'P1'
_cell_length_a                    27.9300003
_cell_length_b                    31.3099995
_cell_length_c                    7.8899999
_cell_angle_alpha                 90.0000000
_cell_angle_beta                  90.0000000
_cell_angle_gamma                 90.0000000
loop_
_atom_site_label
_atom_site_type_symbol
_atom_site_fract_x
_atom_site_fract_y
_atom_site_fract_z
_atom_site_U_iso_or_equiv
_atom_site_adp_type
_atom_site_occupancy
        C1          C  0.0432500  0.3057900  0.8959500    0.00000       Uiso       1.00
        C2          C  0.0432500  0.3408800  0.7866600    0.00000       Uiso       1.00
        C3          C  0.9375100  0.2114200  0.2688900    0.00000       Uiso       1.00
        C4          C  0.9000000  0.2114400  0.3861400    0.00000       Uiso       1.00
        H5          H  0.0772900  0.2922500  0.9322100    0.00000       Uiso       1.00
        H6          H  0.0769200  0.3536500  0.7411900    0.00000       Uiso       1.00
        H7          H  0.9516200  0.1809900  0.2285000    0.00000       Uiso       1.00
        H8          H  0.8862700  0.1814000  0.4337500    0.00000       Uiso       1.00
        C9          C  0.0431300  0.4361000  0.2662500    0.00000       Uiso       1.00
       C10          C  0.0432800  0.4670500  0.1385300    0.00000       Uiso       1.00
       C11          C  0.8093600  0.2115400  0.9481900    0.00000       Uiso       1.00
       C12          C  0.7803900  0.2114000  0.0927500    0.00000       Uiso       1.00
       H13          H  0.0768500  0.4237900  0.3135000    0.00000       Uiso       1.00
       H14          H  0.0780000  0.4772000  0.0953600    0.00000       Uiso       1.00
       H15          H  0.8212200  0.1814600  0.8947600    0.00000       Uiso       1.00
       H16          H  0.7709900  0.1804400  0.1415200    0.00000       Uiso       1.00
       C17          C  0.5432500  0.8057900  0.3959500    0.00000       Uiso       1.00
       C18          C  0.5432500  0.8408800  0.2866600    0.00000       Uiso       1.00
       C19          C  0.4375100  0.7114200  0.7688900    0.00000       Uiso       1.00
       C20          C  0.4000000  0.7114400  0.8861400    0.00000       Uiso       1.00
       H21          H  0.5772900  0.7922500  0.4322100    0.00000       Uiso       1.00
       H22          H  0.5769200  0.8536500  0.2411900    0.00000       Uiso       1.00
       H23          H  0.4516200  0.6809900  0.7285000    0.00000       Uiso       1.00
       H24          H  0.3862700  0.6814000  0.9337500    0.00000       Uiso       1.00
       C25          C  0.5431300  0.9361000  0.7662500    0.00000       Uiso       1.00
       C26          C  0.5432800  0.9670500  0.6385300    0.00000       Uiso       1.00
       C27          C  0.3093600  0.7115400  0.4481900    0.00000       Uiso       1.00
       C28          C  0.2803900  0.7114000  0.5927500    0.00000       Uiso       1.00
       H29          H  0.5768499  0.9237900  0.8135000    0.00000       Uiso       1.00
       H30          H  0.5780001  0.9772000  0.5953600    0.00000       Uiso       1.00
       H31          H  0.3212200  0.6814600  0.3947600    0.00000       Uiso       1.00
       H32          H  0.2709900  0.6804400  0.6415200    0.00000       Uiso       1.00
       C33          C  0.9567500  0.1942100  0.8959500    0.00000       Uiso       1.00
       C34          C  0.9567500  0.1591200  0.7866600    0.00000       Uiso       1.00
       C35          C  0.0624900  0.2885800  0.2688900    0.00000       Uiso       1.00
       C36          C  0.1000000  0.2885600  0.3861400    0.00000       Uiso       1.00
       H37          H  0.9227100  0.2077500  0.9322100    0.00000       Uiso       1.00
       H38          H  0.9230800  0.1463500  0.7411900    0.00000       Uiso       1.00
       H39          H  0.0483800  0.3190100  0.2285000    0.00000       Uiso       1.00
       H40          H  0.1137300  0.3186000  0.4337500    0.00000       Uiso       1.00
       C41          C  0.9568700  0.0639000  0.2662500    0.00000       Uiso       1.00
       C42          C  0.9567200  0.0329500  0.1385300    0.00000       Uiso       1.00
       C43          C  0.1906400  0.2884600  0.9481900    0.00000       Uiso       1.00
       C44          C  0.2196100  0.2886000  0.0927500    0.00000       Uiso       1.00
       H45          H  0.9231501  0.0762100  0.3135000    0.00000       Uiso       1.00
       H46          H  0.9219999  0.0228000  0.0953600    0.00000       Uiso       1.00
       H47          H  0.1787800  0.3185400  0.8947600    0.00000       Uiso       1.00
       H48          H  0.2290100  0.3195600  0.1415200    0.00000       Uiso       1.00
       C49          C  0.4567500  0.6942100  0.3959500    0.00000       Uiso       1.00
       C50          C  0.4567500  0.6591200  0.2866600    0.00000       Uiso       1.00
       C51          C  0.5624900  0.7885800  0.7688900    0.00000       Uiso       1.00
       C52          C  0.6000000  0.7885600  0.8861400    0.00000       Uiso       1.00
       H53          H  0.4227100  0.7077500  0.4322100    0.00000       Uiso       1.00
       H54          H  0.4230800  0.6463500  0.2411900    0.00000       Uiso       1.00
       H55          H  0.5483800  0.8190100  0.7285000    0.00000       Uiso       1.00
       H56          H  0.6137300  0.8186000  0.9337500    0.00000       Uiso       1.00
       C57          C  0.4568700  0.5639000  0.7662500    0.00000       Uiso       1.00
       C58          C  0.4567200  0.5329500  0.6385300    0.00000       Uiso       1.00
       C59          C  0.6906400  0.7884600  0.4481900    0.00000       Uiso       1.00
       C60          C  0.7196100  0.7886000  0.5927500    0.00000       Uiso       1.00
       H61          H  0.4231500  0.5762100  0.8135000    0.00000       Uiso       1.00
       H62          H  0.4220000  0.5228000  0.5953600    0.00000       Uiso       1.00
       H63          H  0.6787800  0.8185400  0.3947600    0.00000       Uiso       1.00
       H64          H  0.7290100  0.8195600  0.6415200    0.00000       Uiso       1.00
       C65          C  0.9567500  0.8057900  0.1040500    0.00000       Uiso       1.00
       C66          C  0.9567500  0.8408800  0.2133400    0.00000       Uiso       1.00
       C67          C  0.0624900  0.7114200  0.7311100    0.00000       Uiso       1.00
       C68          C  0.1000000  0.7114400  0.6138600    0.00000       Uiso       1.00
       H69          H  0.9227100  0.7922500  0.0677900    0.00000       Uiso       1.00
       H70          H  0.9230800  0.8536500  0.2588100    0.00000       Uiso       1.00
       H71          H  0.0483800  0.6809900  0.7715000    0.00000       Uiso       1.00
       H72          H  0.1137300  0.6814000  0.5662500    0.00000       Uiso       1.00
       C73          C  0.9568700  0.9361000  0.7337500    0.00000       Uiso       1.00
       C74          C  0.9567200  0.9670500  0.8614700    0.00000       Uiso       1.00
       C75          C  0.1906400  0.7115400  0.0518100    0.00000       Uiso       1.00
       C76          C  0.2196100  0.7114000  0.9072500    0.00000       Uiso       1.00
       H77          H  0.9231501  0.9237900  0.6865000    0.00000       Uiso       1.00
       H78          H  0.9219999  0.9772000  0.9046400    0.00000       Uiso       1.00
       H79          H  0.1787800  0.6814600  0.1052400    0.00000       Uiso       1.00
       H80          H  0.2290100  0.6804400  0.8584800    0.00000       Uiso       1.00
       C81          C  0.4567500  0.3057900  0.6040500    0.00000       Uiso       1.00
       C82          C  0.4567500  0.3408800  0.7133400    0.00000       Uiso       1.00
       C83          C  0.5624900  0.2114200  0.2311100    0.00000       Uiso       1.00
       C84          C  0.6000000  0.2114400  0.1138600    0.00000       Uiso       1.00
       H85          H  0.4227100  0.2922500  0.5677900    0.00000       Uiso       1.00
       H86          H  0.4230800  0.3536500  0.7588100    0.00000       Uiso       1.00
       H87          H  0.5483800  0.1809900  0.2715000    0.00000       Uiso       1.00
       H88          H  0.6137300  0.1814000  0.0662500    0.00000       Uiso       1.00
       C89          C  0.4568700  0.4361000  0.2337500    0.00000       Uiso       1.00
       C90          C  0.4567200  0.4670500  0.3614700    0.00000       Uiso       1.00
       C91          C  0.6906400  0.2115400  0.5518100    0.00000       Uiso       1.00
       C92          C  0.7196100  0.2114000  0.4072500    0.00000       Uiso       1.00
       H93          H  0.4231500  0.4237900  0.1865000    0.00000       Uiso       1.00
       H94          H  0.4220000  0.4772000  0.4046400    0.00000       Uiso       1.00
       H95          H  0.6787800  0.1814600  0.6052400    0.00000       Uiso       1.00
       H96          H  0.7290100  0.1804400  0.3584800    0.00000       Uiso       1.00
       C97          C  0.0432500  0.6942100  0.1040500    0.00000       Uiso       1.00
       C98          C  0.0432500  0.6591200  0.2133400    0.00000       Uiso       1.00
       C99          C  0.9375100  0.7885800  0.7311100    0.00000       Uiso       1.00
      C100          C  0.9000000  0.7885600  0.6138600    0.00000       Uiso       1.00
      H101          H  0.0772900  0.7077500  0.0677900    0.00000       Uiso       1.00
      H102          H  0.0769200  0.6463500  0.2588100    0.00000       Uiso       1.00
      H103          H  0.9516200  0.8190100  0.7715000    0.00000       Uiso       1.00
      H104          H  0.8862700  0.8186000  0.5662500    0.00000       Uiso       1.00
      C105          C  0.0431300  0.5639000  0.7337500    0.00000       Uiso       1.00
      C106          C  0.0432800  0.5329500  0.8614700    0.00000       Uiso       1.00
      C107          C  0.8093600  0.7884600  0.0518100    0.00000       Uiso       1.00
      C108          C  0.7803900  0.7886000  0.9072500    0.00000       Uiso       1.00
      H109          H  0.0768500  0.5762100  0.6865000    0.00000       Uiso       1.00
      H110          H  0.0780000  0.5228000  0.9046400    0.00000       Uiso       1.00
      H111          H  0.8212200  0.8185400  0.1052400    0.00000       Uiso       1.00
      H112          H  0.7709900  0.8195600  0.8584800    0.00000       Uiso       1.00
      C113          C  0.5432500  0.1942100  0.6040500    0.00000       Uiso       1.00
      C114          C  0.5432500  0.1591200  0.7133400    0.00000       Uiso       1.00
      C115          C  0.4375100  0.2885800  0.2311100    0.00000       Uiso       1.00
      C116          C  0.4000000  0.2885600  0.1138600    0.00000       Uiso       1.00
      H117          H  0.5772900  0.2077500  0.5677900    0.00000       Uiso       1.00
      H118          H  0.5769200  0.1463500  0.7588100    0.00000       Uiso       1.00
      H119          H  0.4516200  0.3190100  0.2715000    0.00000       Uiso       1.00
      H120          H  0.3862700  0.3186000  0.0662500    0.00000       Uiso       1.00
      C121          C  0.5431300  0.0639000  0.2337500    0.00000       Uiso       1.00
      C122          C  0.5432800  0.0329500  0.3614700    0.00000       Uiso       1.00
      C123          C  0.3093600  0.2884600  0.5518100    0.00000       Uiso       1.00
      C124          C  0.2803900  0.2886000  0.4072500    0.00000       Uiso       1.00
      H125          H  0.5768499  0.0762100  0.1865000    0.00000       Uiso       1.00
      H126          H  0.5780001  0.0228000  0.4046400    0.00000       Uiso       1.00
      H127          H  0.3212200  0.3185400  0.6052400    0.00000       Uiso       1.00
      H128          H  0.2709900  0.3195600  0.3584800    0.00000       Uiso       1.00
      C129          C  0.9567500  0.6942100  0.1040500    0.00000       Uiso       1.00
      C130          C  0.9567500  0.6591200  0.2133400    0.00000       Uiso       1.00
      C131          C  0.0624900  0.7885800  0.7311100    0.00000       Uiso       1.00
      C132          C  0.1000000  0.7885600  0.6138600    0.00000       Uiso       1.00
      H133          H  0.9227100  0.7077500  0.0677900    0.00000       Uiso       1.00
      H134          H  0.9230800  0.6463500  0.2588100    0.00000       Uiso       1.00
      H135          H  0.0483800  0.8190100  0.7715000    0.00000       Uiso       1.00
      H136          H  0.1137300  0.8186000  0.5662500    0.00000       Uiso       1.00
      C137          C  0.9568700  0.5639000  0.7337500    0.00000       Uiso       1.00
      C138          C  0.9567200  0.5329500  0.8614700    0.00000       Uiso       1.00
      C139          C  0.1906400  0.7884600  0.0518100    0.00000       Uiso       1.00
      C140          C  0.2196100  0.7886000  0.9072500    0.00000       Uiso       1.00
      H141          H  0.9231501  0.5762100  0.6865000    0.00000       Uiso       1.00
      H142          H  0.9219999  0.5228000  0.9046400    0.00000       Uiso       1.00
      H143          H  0.1787800  0.8185400  0.1052400    0.00000       Uiso       1.00
      H144          H  0.2290100  0.8195600  0.8584800    0.00000       Uiso       1.00
      C145          C  0.4567500  0.1942100  0.6040500    0.00000       Uiso       1.00
      C146          C  0.4567500  0.1591200  0.7133400    0.00000       Uiso       1.00
      C147          C  0.5624900  0.2885800  0.2311100    0.00000       Uiso       1.00
      C148          C  0.6000000  0.2885600  0.1138600    0.00000       Uiso       1.00
      H149          H  0.4227100  0.2077500  0.5677900    0.00000       Uiso       1.00
      H150          H  0.4230800  0.1463500  0.7588100    0.00000       Uiso       1.00
      H151          H  0.5483800  0.3190100  0.2715000    0.00000       Uiso       1.00
      H152          H  0.6137300  0.3186000  0.0662500    0.00000       Uiso       1.00
      C153          C  0.4568700  0.0639000  0.2337500    0.00000       Uiso       1.00
      C154          C  0.4567200  0.0329500  0.3614700    0.00000       Uiso       1.00
      C155          C  0.6906400  0.2884600  0.5518100    0.00000       Uiso       1.00
      C156          C  0.7196100  0.2886000  0.4072500    0.00000       Uiso       1.00
      H157          H  0.4231500  0.0762100  0.1865000    0.00000       Uiso       1.00
      H158          H  0.4220000  0.0228000  0.4046400    0.00000       Uiso       1.00
      H159          H  0.6787800  0.3185400  0.6052400    0.00000       Uiso       1.00
      H160          H  0.7290100  0.3195600  0.3584800    0.00000       Uiso       1.00
      C161          C  0.0432500  0.8057900  0.1040500    0.00000       Uiso       1.00
      C162          C  0.0432500  0.8408800  0.2133400    0.00000       Uiso       1.00
      C163          C  0.9375100  0.7114200  0.7311100    0.00000       Uiso       1.00
      C164          C  0.9000000  0.7114400  0.6138600    0.00000       Uiso       1.00
      H165          H  0.0772900  0.7922500  0.0677900    0.00000       Uiso       1.00
      H166          H  0.0769200  0.8536500  0.2588100    0.00000       Uiso       1.00
      H167          H  0.9516200  0.6809900  0.7715000    0.00000       Uiso       1.00
      H168          H  0.8862700  0.6814000  0.5662500    0.00000       Uiso       1.00
      C169          C  0.0431300  0.9361000  0.7337500    0.00000       Uiso       1.00
      C170          C  0.0432800  0.9670500  0.8614700    0.00000       Uiso       1.00
      C171          C  0.8093600  0.7115400  0.0518100    0.00000       Uiso       1.00
      C172          C  0.7803900  0.7114000  0.9072500    0.00000       Uiso       1.00
      H173          H  0.0768500  0.9237900  0.6865000    0.00000       Uiso       1.00
      H174          H  0.0780000  0.9772000  0.9046400    0.00000       Uiso       1.00
      H175          H  0.8212200  0.6814600  0.1052400    0.00000       Uiso       1.00
      H176          H  0.7709900  0.6804400  0.8584800    0.00000       Uiso       1.00
      C177          C  0.5432500  0.3057900  0.6040500    0.00000       Uiso       1.00
      C178          C  0.5432500  0.3408800  0.7133400    0.00000       Uiso       1.00
      C179          C  0.4375100  0.2114200  0.2311100    0.00000       Uiso       1.00
      C180          C  0.4000000  0.2114400  0.1138600    0.00000       Uiso       1.00
      H181          H  0.5772900  0.2922500  0.5677900    0.00000       Uiso       1.00
      H182          H  0.5769200  0.3536500  0.7588100    0.00000       Uiso       1.00
      H183          H  0.4516200  0.1809900  0.2715000    0.00000       Uiso       1.00
      H184          H  0.3862700  0.1814000  0.0662500    0.00000       Uiso       1.00
      C185          C  0.5431300  0.4361000  0.2337500    0.00000       Uiso       1.00
      C186          C  0.5432800  0.4670500  0.3614700    0.00000       Uiso       1.00
      C187          C  0.3093600  0.2115400  0.5518100    0.00000       Uiso       1.00
      C188          C  0.2803900  0.2114000  0.4072500    0.00000       Uiso       1.00
      H189          H  0.5768499  0.4237900  0.1865000    0.00000       Uiso       1.00
      H190          H  0.5780001  0.4772000  0.4046400    0.00000       Uiso       1.00
      H191          H  0.3212200  0.1814600  0.6052400    0.00000       Uiso       1.00
      H192          H  0.2709900  0.1804400  0.3584800    0.00000       Uiso       1.00
      C193          C  0.0432500  0.1942100  0.8959500    0.00000       Uiso       1.00
      C194          C  0.0432500  0.1591200  0.7866600    0.00000       Uiso       1.00
      C195          C  0.9375100  0.2885800  0.2688900    0.00000       Uiso       1.00
      C196          C  0.9000000  0.2885600  0.3861400    0.00000       Uiso       1.00
      H197          H  0.0772900  0.2077500  0.9322100    0.00000       Uiso       1.00
      H198          H  0.0769200  0.1463500  0.7411900    0.00000       Uiso       1.00
      H199          H  0.9516200  0.3190100  0.2285000    0.00000       Uiso       1.00
      H200          H  0.8862700  0.3186000  0.4337500    0.00000       Uiso       1.00
      C201          C  0.0431300  0.0639000  0.2662500    0.00000       Uiso       1.00
      C202          C  0.0432800  0.0329500  0.1385300    0.00000       Uiso       1.00
      C203          C  0.8093600  0.2884600  0.9481900    0.00000       Uiso       1.00
      C204          C  0.7803900  0.2886000  0.0927500    0.00000       Uiso       1.00
      H205          H  0.0768500  0.0762100  0.3135000    0.00000       Uiso       1.00
      H206          H  0.0780000  0.0228000  0.0953600    0.00000       Uiso       1.00
      H207          H  0.8212200  0.3185400  0.8947600    0.00000       Uiso       1.00
      H208          H  0.7709900  0.3195600  0.1415200    0.00000       Uiso       1.00
      C209          C  0.5432500  0.6942100  0.3959500    0.00000       Uiso       1.00
      C210          C  0.5432500  0.6591200  0.2866600    0.00000       Uiso       1.00
      C211          C  0.4375100  0.7885800  0.7688900    0.00000       Uiso       1.00
      C212          C  0.4000000  0.7885600  0.8861400    0.00000       Uiso       1.00
      H213          H  0.5772900  0.7077500  0.4322100    0.00000       Uiso       1.00
      H214          H  0.5769200  0.6463500  0.2411900    0.00000       Uiso       1.00
      H215          H  0.4516200  0.8190100  0.7285000    0.00000       Uiso       1.00
      H216          H  0.3862700  0.8186000  0.9337500    0.00000       Uiso       1.00
      C217          C  0.5431300  0.5639000  0.7662500    0.00000       Uiso       1.00
      C218          C  0.5432800  0.5329500  0.6385300    0.00000       Uiso       1.00
      C219          C  0.3093600  0.7884600  0.4481900    0.00000       Uiso       1.00
      C220          C  0.2803900  0.7886000  0.5927500    0.00000       Uiso       1.00
      H221          H  0.5768499  0.5762100  0.8135000    0.00000       Uiso       1.00
      H222          H  0.5780001  0.5228000  0.5953600    0.00000       Uiso       1.00
      H223          H  0.3212200  0.8185400  0.3947600    0.00000       Uiso       1.00
      H224          H  0.2709900  0.8195600  0.6415200    0.00000       Uiso       1.00
      C225          C  0.9567500  0.3057900  0.8959500    0.00000       Uiso       1.00
      C226          C  0.9567500  0.3408800  0.7866600    0.00000       Uiso       1.00
      C227          C  0.0624900  0.2114200  0.2688900    0.00000       Uiso       1.00
      C228          C  0.1000000  0.2114400  0.3861400    0.00000       Uiso       1.00
      H229          H  0.9227100  0.2922500  0.9322100    0.00000       Uiso       1.00
      H230          H  0.9230800  0.3536500  0.7411900    0.00000       Uiso       1.00
      H231          H  0.0483800  0.1809900  0.2285000    0.00000       Uiso       1.00
      H232          H  0.1137300  0.1814000  0.4337500    0.00000       Uiso       1.00
      C233          C  0.9568700  0.4361000  0.2662500    0.00000       Uiso       1.00
      C234          C  0.9567200  0.4670500  0.1385300    0.00000       Uiso       1.00
      C235          C  0.1906400  0.2115400  0.9481900    0.00000       Uiso       1.00
      C236          C  0.2196100  0.2114000  0.0927500    0.00000       Uiso       1.00
      H237          H  0.9231501  0.4237900  0.3135000    0.00000       Uiso       1.00
      H238          H  0.9219999  0.4772000  0.0953600    0.00000       Uiso       1.00
      H239          H  0.1787800  0.1814600  0.8947600    0.00000       Uiso       1.00
      H240          H  0.2290100  0.1804400  0.1415200    0.00000       Uiso       1.00
      C241          C  0.4567500  0.8057900  0.3959500    0.00000       Uiso       1.00
      C242          C  0.4567500  0.8408800  0.2866600    0.00000       Uiso       1.00
      C243          C  0.5624900  0.7114200  0.7688900    0.00000       Uiso       1.00
      C244          C  0.6000000  0.7114400  0.8861400    0.00000       Uiso       1.00
      H245          H  0.4227100  0.7922500  0.4322100    0.00000       Uiso       1.00
      H246          H  0.4230800  0.8536500  0.2411900    0.00000       Uiso       1.00
      H247          H  0.5483800  0.6809900  0.7285000    0.00000       Uiso       1.00
      H248          H  0.6137300  0.6814000  0.9337500    0.00000       Uiso       1.00
      C249          C  0.4568700  0.9361000  0.7662500    0.00000       Uiso       1.00
      C250          C  0.4567200  0.9670500  0.6385300    0.00000       Uiso       1.00
      C251          C  0.6906400  0.7115400  0.4481900    0.00000       Uiso       1.00
      C252          C  0.7196100  0.7114000  0.5927500    0.00000       Uiso       1.00
      H253          H  0.4231500  0.9237900  0.8135000    0.00000       Uiso       1.00
      H254          H  0.4220000  0.9772000  0.5953600    0.00000       Uiso       1.00
      H255          H  0.6787800  0.6814600  0.3947600    0.00000       Uiso       1.00
      H256          H  0.7290100  0.6804400  0.6415200    0.00000       Uiso       1.00
      C257          C  0.0000000  0.2500000  0.0817900    0.00000       Uiso       1.00
      C258          C  0.5000000  0.7500000  0.5817900    0.00000       Uiso       1.00
      C259          C  0.0000000  0.7500000  0.9182100    0.00000       Uiso       1.00
      C260          C  0.5000000  0.2500000  0.4182100    0.00000       Uiso       1.00
      C261          C  0.0000000  0.2888800  0.9603200    0.00000       Uiso       1.00
      C262          C  0.0000000  0.3589700  0.7339700    0.00000       Uiso       1.00
      N263          N  0.0000000  0.3936100  0.6159600    0.00000       Uiso       1.00
      C264          C  0.0000000  0.4833900  0.0701600    0.00000       Uiso       1.00
      C265          C  0.0000000  0.4206600  0.3307700    0.00000       Uiso       1.00
      C266          C  0.0000000  0.3859300  0.4548200    0.00000       Uiso       1.00
      H267          H  0.0000000  0.3534400  0.4099600    0.00000       Uiso       1.00
      C268          C  0.5000000  0.7888800  0.4603200    0.00000       Uiso       1.00
      C269          C  0.5000000  0.8589700  0.2339700    0.00000       Uiso       1.00
      N270          N  0.5000000  0.8936100  0.1159600    0.00000       Uiso       1.00
      C271          C  0.5000000  0.9833900  0.5701600    0.00000       Uiso       1.00
      C272          C  0.5000000  0.9206600  0.8307700    0.00000       Uiso       1.00
      C273          C  0.5000000  0.8859300  0.9548200    0.00000       Uiso       1.00
      H274          H  0.5000000  0.8534400  0.9099600    0.00000       Uiso       1.00
      C275          C  0.0000000  0.2111200  0.9603200    0.00000       Uiso       1.00
      C276          C  0.0000000  0.1410300  0.7339700    0.00000       Uiso       1.00
      N277          N  0.0000000  0.1063900  0.6159600    0.00000       Uiso       1.00
      C278          C  0.0000000  0.0166100  0.0701600    0.00000       Uiso       1.00
      C279          C  0.0000000  0.0793400  0.3307700    0.00000       Uiso       1.00
      C280          C  0.0000000  0.1140700  0.4548200    0.00000       Uiso       1.00
      H281          H  0.0000000  0.1465600  0.4099600    0.00000       Uiso       1.00
      C282          C  0.5000000  0.7111200  0.4603200    0.00000       Uiso       1.00
      C283          C  0.5000000  0.6410300  0.2339700    0.00000       Uiso       1.00
      N284          N  0.5000000  0.6063900  0.1159600    0.00000       Uiso       1.00
      C285          C  0.5000000  0.5166100  0.5701600    0.00000       Uiso       1.00
      C286          C  0.5000000  0.5793400  0.8307700    0.00000       Uiso       1.00
      C287          C  0.5000000  0.6140700  0.9548200    0.00000       Uiso       1.00
      H288          H  0.5000000  0.6465600  0.9099600    0.00000       Uiso       1.00
      C289          C  0.0000000  0.7888800  0.0396800    0.00000       Uiso       1.00
      C290          C  0.0000000  0.8589700  0.2660300    0.00000       Uiso       1.00
      N291          N  0.0000000  0.8936100  0.3840400    0.00000       Uiso       1.00
      C292          C  0.0000000  0.9833900  0.9298400    0.00000       Uiso       1.00
      C293          C  0.0000000  0.9206600  0.6692300    0.00000       Uiso       1.00
      C294          C  0.0000000  0.8859300  0.5451800    0.00000       Uiso       1.00
      H295          H  0.0000000  0.8534400  0.5900400    0.00000       Uiso       1.00
      C296          C  0.5000000  0.2888800  0.5396800    0.00000       Uiso       1.00
      C297          C  0.5000000  0.3589700  0.7660300    0.00000       Uiso       1.00
      N298          N  0.5000000  0.3936100  0.8840400    0.00000       Uiso       1.00
      C299          C  0.5000000  0.4833900  0.4298400    0.00000       Uiso       1.00
      C300          C  0.5000000  0.4206600  0.1692300    0.00000       Uiso       1.00
      C301          C  0.5000000  0.3859300  0.0451800    0.00000       Uiso       1.00
      H302          H  0.5000000  0.3534400  0.0900400    0.00000       Uiso       1.00
      C303          C  0.0000000  0.7111200  0.0396800    0.00000       Uiso       1.00
      C304          C  0.0000000  0.6410300  0.2660300    0.00000       Uiso       1.00
      N305          N  0.0000000  0.6063900  0.3840400    0.00000       Uiso       1.00
      C306          C  0.0000000  0.5166100  0.9298400    0.00000       Uiso       1.00
      C307          C  0.0000000  0.5793400  0.6692300    0.00000       Uiso       1.00
      C308          C  0.0000000  0.6140700  0.5451800    0.00000       Uiso       1.00
      H309          H  0.0000000  0.6465600  0.5900400    0.00000       Uiso       1.00
      C310          C  0.5000000  0.2111200  0.5396800    0.00000       Uiso       1.00
      C311          C  0.5000000  0.1410300  0.7660300    0.00000       Uiso       1.00
      N312          N  0.5000000  0.1063900  0.8840400    0.00000       Uiso       1.00
      C313          C  0.5000000  0.0166100  0.4298400    0.00000       Uiso       1.00
      C314          C  0.5000000  0.0793400  0.1692300    0.00000       Uiso       1.00
      C315          C  0.5000000  0.1140700  0.0451800    0.00000       Uiso       1.00
      H316          H  0.5000000  0.1465600  0.0900400    0.00000       Uiso       1.00
      C317          C  0.9563000  0.2500000  0.2035900    0.00000       Uiso       1.00
      C318          C  0.8810500  0.2500000  0.4447700    0.00000       Uiso       1.00
      N319          N  0.8449200  0.2500000  0.5726900    0.00000       Uiso       1.00
      C320          C  0.7652900  0.2500000  0.1703800    0.00000       Uiso       1.00
      C321          C  0.8238500  0.2500000  0.8754500    0.00000       Uiso       1.00
      C322          C  0.8585100  0.2500000  0.7363700    0.00000       Uiso       1.00
      H323          H  0.6041390  0.2500000  0.7400670    0.00000       Uiso       1.00
      C324          C  0.4563000  0.7500000  0.7035900    0.00000       Uiso       1.00
      C325          C  0.3810500  0.7500000  0.9447700    0.00000       Uiso       1.00
      N326          N  0.3449200  0.7500000  0.0726900    0.00000       Uiso       1.00
      C327          C  0.2652900  0.7500000  0.6703800    0.00000       Uiso       1.00
      C328          C  0.3238500  0.7500000  0.3754500    0.00000       Uiso       1.00
      C329          C  0.3585100  0.7500000  0.2363700    0.00000       Uiso       1.00
      H330          H  0.1041390  0.7500000  0.2400670    0.00000       Uiso       1.00
      C331          C  0.0437000  0.2500000  0.2035900    0.00000       Uiso       1.00
      C332          C  0.1189500  0.2500000  0.4447700    0.00000       Uiso       1.00
      N333          N  0.1550800  0.2500000  0.5726900    0.00000       Uiso       1.00
      C334          C  0.2347100  0.2500000  0.1703800    0.00000       Uiso       1.00
      C335          C  0.1761500  0.2500000  0.8754500    0.00000       Uiso       1.00
      C336          C  0.1414900  0.2500000  0.7363700    0.00000       Uiso       1.00
      H337          H  0.3958610  0.2500000  0.7400670    0.00000       Uiso       1.00
      C338          C  0.5437000  0.7500000  0.7035900    0.00000       Uiso       1.00
      C339          C  0.6189500  0.7500000  0.9447700    0.00000       Uiso       1.00
      N340          N  0.6550800  0.7500000  0.0726900    0.00000       Uiso       1.00
      C341          C  0.7347100  0.7500000  0.6703800    0.00000       Uiso       1.00
      C342          C  0.6761500  0.7500000  0.3754500    0.00000       Uiso       1.00
      C343          C  0.6414900  0.7500000  0.2363700    0.00000       Uiso       1.00
      H344          H  0.8958610  0.7500000  0.2400670    0.00000       Uiso       1.00
      C345          C  0.0437000  0.7500000  0.7964100    0.00000       Uiso       1.00
      C346          C  0.1189500  0.7500000  0.5552300    0.00000       Uiso       1.00
      N347          N  0.1550800  0.7500000  0.4273100    0.00000       Uiso       1.00
      C348          C  0.2347100  0.7500000  0.8296200    0.00000       Uiso       1.00
      C349          C  0.1761500  0.7500000  0.1245500    0.00000       Uiso       1.00
      C350          C  0.1414900  0.7500000  0.2636300    0.00000       Uiso       1.00
      H351          H  0.3958610  0.7500000  0.2599330    0.00000       Uiso       1.00
      C352          C  0.5437000  0.2500000  0.2964100    0.00000       Uiso       1.00
      C353          C  0.6189500  0.2500000  0.0552300    0.00000       Uiso       1.00
      N354          N  0.6550800  0.2500000  0.9273100    0.00000       Uiso       1.00
      C355          C  0.7347100  0.2500000  0.3296200    0.00000       Uiso       1.00
      C356          C  0.6761500  0.2500000  0.6245500    0.00000       Uiso       1.00
      C357          C  0.6414900  0.2500000  0.7636300    0.00000       Uiso       1.00
      H358          H  0.8958610  0.2500000  0.7599330    0.00000       Uiso       1.00
      C359          C  0.9563000  0.7500000  0.7964100    0.00000       Uiso       1.00
      C360          C  0.8810500  0.7500000  0.5552300    0.00000       Uiso       1.00
      N361          N  0.8449200  0.7500000  0.4273100    0.00000       Uiso       1.00
      C362          C  0.7652900  0.7500000  0.8296200    0.00000       Uiso       1.00
      C363          C  0.8238500  0.7500000  0.1245500    0.00000       Uiso       1.00
      C364          C  0.8585100  0.7500000  0.2636300    0.00000       Uiso       1.00
      H365          H  0.6041390  0.7500000  0.2599330    0.00000       Uiso       1.00
      C366          C  0.4563000  0.2500000  0.2964100    0.00000       Uiso       1.00
      C367          C  0.3810500  0.2500000  0.0552300    0.00000       Uiso       1.00
      N368          N  0.3449200  0.2500000  0.9273100    0.00000       Uiso       1.00
      C369          C  0.2652900  0.2500000  0.3296200    0.00000       Uiso       1.00
      C370          C  0.3238500  0.2500000  0.6245500    0.00000       Uiso       1.00
      C371          C  0.3585100  0.2500000  0.7636300    0.00000       Uiso       1.00
      H372          H  0.1041390  0.2500000  0.7599330    0.00000       Uiso       1.00
