data_COF-366-Co
_audit_creation_date              0000-00-00
_audit_creation_method            'LanYouShi'
_symmetry_space_group_name_H-M    'P1'
_cell_length_a                    41.1020012
_cell_length_b                    32.4035988
_cell_length_c                    4.6700001
_cell_angle_alpha                 90.0000000
_cell_angle_beta                  90.0000000
_cell_angle_gamma                 90.0000000
loop_
_atom_site_label
_atom_site_type_symbol
_atom_site_fract_x
_atom_site_fract_y
_atom_site_fract_z
_atom_site_U_iso_or_equiv
_atom_site_adp_type
_atom_site_occupancy
       xx1          C  0.3647900  0.3675700 -0.3018200    0.00000       Uiso       1.00
       xx2          C  0.3929400  0.3928500 -0.2891100    0.00000       Uiso       1.00
       xx3          H  0.3496400  0.3691200 -0.4912800    0.00000       Uiso       1.00
       xx4          H  0.3980800  0.4130600 -0.4683200    0.00000       Uiso       1.00
       xx5          C  0.8766199  0.8408600 -0.1669400    0.00000       Uiso       1.00
       xx6          C  0.9053400  0.8658900 -0.1777400    0.00000       Uiso       1.00
       xx7          H  0.8711200  0.8215700 -0.3494000    0.00000       Uiso       1.00
       xx8          H  0.9200700  0.8652300 -0.3699100    0.00000       Uiso       1.00
       xx9          N  0.1735000  0.1807800  0.0966900    0.00000       Uiso       1.00
      xx10          C  0.1886300  0.2068900 -0.0960000    0.00000       Uiso       1.00
      xx11          C  0.2192000  0.2280400 -0.0431300    0.00000       Uiso       1.00
      xx12          C  0.2367500  0.2251100  0.2164500    0.00000       Uiso       1.00
      xx13          C  0.2333000  0.2535000 -0.2579700    0.00000       Uiso       1.00
      xx14          C  0.4732500  0.4125500 -0.0056700    0.00000       Uiso       1.00
      xx15          C  0.4138900  0.3932100 -0.0481400    0.00000       Uiso       1.00
      xx16          C  0.4399000  0.4241000 -0.0225600    0.00000       Uiso       1.00
      xx17          C  0.3554200  0.3415900 -0.0736000    0.00000       Uiso       1.00
      xx18          C  0.4312500  0.4663800 -0.0156600    0.00000       Uiso       1.00
      xx19          C  0.4829700  0.3716700 -0.0050800    0.00000       Uiso       1.00
      xx20          C  0.3989900  0.4786800 -0.0074100    0.00000       Uiso       1.00
      xx21          H  0.1773200  0.2117200 -0.3025100    0.00000       Uiso       1.00
      xx22          H  0.2273800  0.2062900  0.3894800    0.00000       Uiso       1.00
      xx23          H  0.2210800  0.2569500 -0.4621300    0.00000       Uiso       1.00
      xx24          H  0.4677400  0.3444700 -0.0128400    0.00000       Uiso       1.00
      xx25          C  0.6352100  0.6324300 -0.3018200    0.00000       Uiso       1.00
      xx26          C  0.6070600  0.6071500 -0.2891100    0.00000       Uiso       1.00
      xx27          H  0.6503600  0.6308800 -0.4912800    0.00000       Uiso       1.00
      xx28          H  0.6019200  0.5869400 -0.4683200    0.00000       Uiso       1.00
      xx29          C  0.1233800  0.1591400 -0.1669400    0.00000       Uiso       1.00
      xx30          C  0.0946600  0.1341100 -0.1777400    0.00000       Uiso       1.00
      xx31          H  0.1288800  0.1784300 -0.3494000    0.00000       Uiso       1.00
      xx32          H  0.0799300  0.1347700 -0.3699100    0.00000       Uiso       1.00
      xx33          N  0.8264999  0.8192200  0.0966900    0.00000       Uiso       1.00
      xx34          C  0.8113700  0.7931100 -0.0960000    0.00000       Uiso       1.00
      xx35          C  0.7808000  0.7719600 -0.0431300    0.00000       Uiso       1.00
      xx36          C  0.7632500  0.7748900  0.2164500    0.00000       Uiso       1.00
      xx37          C  0.7667000  0.7465000 -0.2579700    0.00000       Uiso       1.00
      xx38          C  0.5267500  0.5874500 -0.0056700    0.00000       Uiso       1.00
      xx39          C  0.5861100  0.6067900 -0.0481400    0.00000       Uiso       1.00
      xx40          C  0.5601000  0.5759000 -0.0225600    0.00000       Uiso       1.00
      xx41          C  0.6445800  0.6584100 -0.0736000    0.00000       Uiso       1.00
      xx42          C  0.5687500  0.5336200 -0.0156600    0.00000       Uiso       1.00
      xx43          C  0.5170300  0.6283300 -0.0050800    0.00000       Uiso       1.00
      xx44          C  0.6010100  0.5213200 -0.0074100    0.00000       Uiso       1.00
      xx45          H  0.8226800  0.7882800 -0.3025100    0.00000       Uiso       1.00
      xx46          H  0.7726200  0.7937100  0.3894800    0.00000       Uiso       1.00
      xx47          H  0.7789200  0.7430500 -0.4621300    0.00000       Uiso       1.00
      xx48          H  0.5322600  0.6555300 -0.0128400    0.00000       Uiso       1.00
      xx49          C  0.6352100  0.3675700  0.3018200    0.00000       Uiso       1.00
      xx50          C  0.6070600  0.3928500  0.2891100    0.00000       Uiso       1.00
      xx51          H  0.6503600  0.3691200  0.4912800    0.00000       Uiso       1.00
      xx52          H  0.6019200  0.4130600  0.4683200    0.00000       Uiso       1.00
      xx53          C  0.1233800  0.8408600  0.1669400    0.00000       Uiso       1.00
      xx54          C  0.0946600  0.8658900  0.1777400    0.00000       Uiso       1.00
      xx55          H  0.1288800  0.8215700  0.3494000    0.00000       Uiso       1.00
      xx56          H  0.0799300  0.8652300  0.3699100    0.00000       Uiso       1.00
      xx57          N  0.8264999  0.1807800 -0.0966900    0.00000       Uiso       1.00
      xx58          C  0.8113700  0.2068900  0.0960000    0.00000       Uiso       1.00
      xx59          C  0.7808000  0.2280400  0.0431300    0.00000       Uiso       1.00
      xx60          C  0.7632500  0.2251100 -0.2164500    0.00000       Uiso       1.00
      xx61          C  0.7667000  0.2535000  0.2579700    0.00000       Uiso       1.00
      xx62          C  0.5267500  0.4125500  0.0056700    0.00000       Uiso       1.00
      xx63          C  0.5861100  0.3932100  0.0481400    0.00000       Uiso       1.00
      xx64          C  0.5601000  0.4241000  0.0225600    0.00000       Uiso       1.00
      xx65          C  0.6445800  0.3415900  0.0736000    0.00000       Uiso       1.00
      xx66          C  0.5687500  0.4663800  0.0156600    0.00000       Uiso       1.00
      xx67          C  0.5170300  0.3716700  0.0050800    0.00000       Uiso       1.00
      xx68          C  0.6010100  0.4786800  0.0074100    0.00000       Uiso       1.00
      xx69          H  0.8226800  0.2117200  0.3025100    0.00000       Uiso       1.00
      xx70          H  0.7726200  0.2062900 -0.3894800    0.00000       Uiso       1.00
      xx71          H  0.7789200  0.2569500  0.4621300    0.00000       Uiso       1.00
      xx72          H  0.5322600  0.3444700  0.0128400    0.00000       Uiso       1.00
      xx73          C  0.3647900  0.6324300  0.3018200    0.00000       Uiso       1.00
      xx74          C  0.3929400  0.6071500  0.2891100    0.00000       Uiso       1.00
      xx75          H  0.3496400  0.6308800  0.4912800    0.00000       Uiso       1.00
      xx76          H  0.3980800  0.5869400  0.4683200    0.00000       Uiso       1.00
      xx77          C  0.8766199  0.1591400  0.1669400    0.00000       Uiso       1.00
      xx78          C  0.9053400  0.1341100  0.1777400    0.00000       Uiso       1.00
      xx79          H  0.8711200  0.1784300  0.3494000    0.00000       Uiso       1.00
      xx80          H  0.9200700  0.1347700  0.3699100    0.00000       Uiso       1.00
      xx81          N  0.1735000  0.8192200 -0.0966900    0.00000       Uiso       1.00
      xx82          C  0.1886300  0.7931100  0.0960000    0.00000       Uiso       1.00
      xx83          C  0.2192000  0.7719600  0.0431300    0.00000       Uiso       1.00
      xx84          C  0.2367500  0.7748900 -0.2164500    0.00000       Uiso       1.00
      xx85          C  0.2333000  0.7465000  0.2579700    0.00000       Uiso       1.00
      xx86          C  0.4732500  0.5874500  0.0056700    0.00000       Uiso       1.00
      xx87          C  0.4138900  0.6067900  0.0481400    0.00000       Uiso       1.00
      xx88          C  0.4399000  0.5759000  0.0225600    0.00000       Uiso       1.00
      xx89          C  0.3554200  0.6584100  0.0736000    0.00000       Uiso       1.00
      xx90          C  0.4312500  0.5336200  0.0156600    0.00000       Uiso       1.00
      xx91          C  0.4829700  0.6283300  0.0050800    0.00000       Uiso       1.00
      xx92          C  0.3989900  0.5213200  0.0074100    0.00000       Uiso       1.00
      xx93          H  0.1773200  0.7882800  0.3025100    0.00000       Uiso       1.00
      xx94          H  0.2273800  0.7937100 -0.3894800    0.00000       Uiso       1.00
      xx95          H  0.2210800  0.7430500  0.4621300    0.00000       Uiso       1.00
      xx96          H  0.4677400  0.6555300  0.0128400    0.00000       Uiso       1.00
      xx97          C  0.1352100  0.1324300  0.3018200    0.00000       Uiso       1.00
      xx98          C  0.1070600  0.1071500  0.2891100    0.00000       Uiso       1.00
      xx99          H  0.1503600  0.1308800  0.4912800    0.00000       Uiso       1.00
     xx100          H  0.1019200  0.0869400  0.4683200    0.00000       Uiso       1.00
     xx101          C  0.6233800  0.6591400  0.1669400    0.00000       Uiso       1.00
     xx102          C  0.5946600  0.6341100  0.1777400    0.00000       Uiso       1.00
     xx103          H  0.6288800  0.6784300  0.3494000    0.00000       Uiso       1.00
     xx104          H  0.5799300  0.6347700  0.3699100    0.00000       Uiso       1.00
     xx105          N  0.3265000  0.3192200 -0.0966900    0.00000       Uiso       1.00
     xx106          C  0.3113700  0.2931100  0.0960000    0.00000       Uiso       1.00
     xx107          C  0.2808000  0.2719600  0.0431300    0.00000       Uiso       1.00
     xx108          C  0.2632500  0.2748900 -0.2164500    0.00000       Uiso       1.00
     xx109          C  0.2667000  0.2465000  0.2579700    0.00000       Uiso       1.00
     xx110          C  0.0267500  0.0874500  0.0056700    0.00000       Uiso       1.00
     xx111          C  0.0861100  0.1067900  0.0481400    0.00000       Uiso       1.00
     xx112          C  0.0601000  0.0759000  0.0225600    0.00000       Uiso       1.00
     xx113          C  0.1445800  0.1584100  0.0736000    0.00000       Uiso       1.00
     xx114          C  0.0687500  0.0336200  0.0156600    0.00000       Uiso       1.00
     xx115          C  0.0170300  0.1283300  0.0050800    0.00000       Uiso       1.00
     xx116          C  0.1010100  0.0213200  0.0074100    0.00000       Uiso       1.00
     xx117          H  0.3226800  0.2882800  0.3025100    0.00000       Uiso       1.00
     xx118          H  0.2726200  0.2937100 -0.3894800    0.00000       Uiso       1.00
     xx119          H  0.2789200  0.2430500  0.4621300    0.00000       Uiso       1.00
     xx120          H  0.0322600  0.1555300  0.0128400    0.00000       Uiso       1.00
     xx121          C  0.8647900  0.8675700  0.3018200    0.00000       Uiso       1.00
     xx122          C  0.8929400  0.8928500  0.2891100    0.00000       Uiso       1.00
     xx123          H  0.8496400  0.8691200  0.4912800    0.00000       Uiso       1.00
     xx124          H  0.8980800  0.9130600  0.4683200    0.00000       Uiso       1.00
     xx125          C  0.3766200  0.3408600  0.1669400    0.00000       Uiso       1.00
     xx126          C  0.4053400  0.3658900  0.1777400    0.00000       Uiso       1.00
     xx127          H  0.3711200  0.3215700  0.3494000    0.00000       Uiso       1.00
     xx128          H  0.4200700  0.3652300  0.3699100    0.00000       Uiso       1.00
     xx129          N  0.6735000  0.6807800 -0.0966900    0.00000       Uiso       1.00
     xx130          C  0.6886300  0.7068900  0.0960000    0.00000       Uiso       1.00
     xx131          C  0.7192000  0.7280400  0.0431300    0.00000       Uiso       1.00
     xx132          C  0.7367500  0.7251100 -0.2164500    0.00000       Uiso       1.00
     xx133          C  0.7333000  0.7535000  0.2579700    0.00000       Uiso       1.00
     xx134          C  0.9732500  0.9125500  0.0056700    0.00000       Uiso       1.00
     xx135          C  0.9138901  0.8932100  0.0481400    0.00000       Uiso       1.00
     xx136          C  0.9399000  0.9241000  0.0225600    0.00000       Uiso       1.00
     xx137          C  0.8554200  0.8415900  0.0736000    0.00000       Uiso       1.00
     xx138          C  0.9312500  0.9663800  0.0156600    0.00000       Uiso       1.00
     xx139          C  0.9829700  0.8716700  0.0050800    0.00000       Uiso       1.00
     xx140          C  0.8989900  0.9786800  0.0074100    0.00000       Uiso       1.00
     xx141          H  0.6773200  0.7117200  0.3025100    0.00000       Uiso       1.00
     xx142          H  0.7273800  0.7062900 -0.3894800    0.00000       Uiso       1.00
     xx143          H  0.7210800  0.7569500  0.4621300    0.00000       Uiso       1.00
     xx144          H  0.9677400  0.8444700  0.0128400    0.00000       Uiso       1.00
     xx145          C  0.8647900  0.1324300 -0.3018200    0.00000       Uiso       1.00
     xx146          C  0.8929400  0.1071500 -0.2891100    0.00000       Uiso       1.00
     xx147          H  0.8496400  0.1308800 -0.4912800    0.00000       Uiso       1.00
     xx148          H  0.8980800  0.0869400 -0.4683200    0.00000       Uiso       1.00
     xx149          C  0.3766200  0.6591400 -0.1669400    0.00000       Uiso       1.00
     xx150          C  0.4053400  0.6341100 -0.1777400    0.00000       Uiso       1.00
     xx151          H  0.3711200  0.6784300 -0.3494000    0.00000       Uiso       1.00
     xx152          H  0.4200700  0.6347700 -0.3699100    0.00000       Uiso       1.00
     xx153          N  0.6735000  0.3192200  0.0966900    0.00000       Uiso       1.00
     xx154          C  0.6886300  0.2931100 -0.0960000    0.00000       Uiso       1.00
     xx155          C  0.7192000  0.2719600 -0.0431300    0.00000       Uiso       1.00
     xx156          C  0.7367500  0.2748900  0.2164500    0.00000       Uiso       1.00
     xx157          C  0.7333000  0.2465000 -0.2579700    0.00000       Uiso       1.00
     xx158          C  0.9732500  0.0874500 -0.0056700    0.00000       Uiso       1.00
     xx159          C  0.9138901  0.1067900 -0.0481400    0.00000       Uiso       1.00
     xx160          C  0.9399000  0.0759000 -0.0225600    0.00000       Uiso       1.00
     xx161          C  0.8554200  0.1584100 -0.0736000    0.00000       Uiso       1.00
     xx162          C  0.9312500  0.0336200 -0.0156600    0.00000       Uiso       1.00
     xx163          C  0.9829700  0.1283300 -0.0050800    0.00000       Uiso       1.00
     xx164          C  0.8989900  0.0213200 -0.0074100    0.00000       Uiso       1.00
     xx165          H  0.6773200  0.2882800 -0.3025100    0.00000       Uiso       1.00
     xx166          H  0.7273800  0.2937100  0.3894800    0.00000       Uiso       1.00
     xx167          H  0.7210800  0.2430500 -0.4621300    0.00000       Uiso       1.00
     xx168          H  0.9677400  0.1555300 -0.0128400    0.00000       Uiso       1.00
     xx169          C  0.1352100  0.8675700 -0.3018200    0.00000       Uiso       1.00
     xx170          C  0.1070600  0.8928500 -0.2891100    0.00000       Uiso       1.00
     xx171          H  0.1503600  0.8691200 -0.4912800    0.00000       Uiso       1.00
     xx172          H  0.1019200  0.9130600 -0.4683200    0.00000       Uiso       1.00
     xx173          C  0.6233800  0.3408600 -0.1669400    0.00000       Uiso       1.00
     xx174          C  0.5946600  0.3658900 -0.1777400    0.00000       Uiso       1.00
     xx175          H  0.6288800  0.3215700 -0.3494000    0.00000       Uiso       1.00
     xx176          H  0.5799300  0.3652300 -0.3699100    0.00000       Uiso       1.00
     xx177          N  0.3265000  0.6807800  0.0966900    0.00000       Uiso       1.00
     xx178          C  0.3113700  0.7068900 -0.0960000    0.00000       Uiso       1.00
     xx179          C  0.2808000  0.7280400 -0.0431300    0.00000       Uiso       1.00
     xx180          C  0.2632500  0.7251100  0.2164500    0.00000       Uiso       1.00
     xx181          C  0.2667000  0.7535000 -0.2579700    0.00000       Uiso       1.00
     xx182          C  0.0267500  0.9125500 -0.0056700    0.00000       Uiso       1.00
     xx183          C  0.0861100  0.8932100 -0.0481400    0.00000       Uiso       1.00
     xx184          C  0.0601000  0.9241000 -0.0225600    0.00000       Uiso       1.00
     xx185          C  0.1445800  0.8415900 -0.0736000    0.00000       Uiso       1.00
     xx186          C  0.0687500  0.9663800 -0.0156600    0.00000       Uiso       1.00
     xx187          C  0.0170300  0.8716700 -0.0050800    0.00000       Uiso       1.00
     xx188          C  0.1010100  0.9786800 -0.0074100    0.00000       Uiso       1.00
     xx189          H  0.3226800  0.7117200 -0.3025100    0.00000       Uiso       1.00
     xx190          H  0.2726200  0.7062900  0.3894800    0.00000       Uiso       1.00
     xx191          H  0.2789200  0.7569500 -0.4621300    0.00000       Uiso       1.00
     xx192          H  0.0322600  0.8444700 -0.0128400    0.00000       Uiso       1.00
     xx193          N  0.5000000  0.5615600  0.0000000    0.00000       Uiso       1.00
     xx194          N  0.5000000  0.4384400  0.0000000    0.00000       Uiso       1.00
     xx195          N  0.0000000  0.9384400  0.0000000    0.00000       Uiso       1.00
     xx196          N  0.0000000  0.0615600  0.0000000    0.00000       Uiso       1.00
     xx197          N  0.4517100  0.5000000  0.0000000    0.00000       Uiso       1.00
     xx198          N  0.5482900  0.5000000  0.0000000    0.00000       Uiso       1.00
     xx199          N  0.0482900  0.0000000  0.0000000    0.00000       Uiso       1.00
     xx200          N  0.9517099  0.0000000  0.0000000    0.00000       Uiso       1.00
     xx201         Co  0.5000000  0.5000000  0.0000000    0.00000       Uiso       1.00
     xx202         Co  0.0000000  0.0000000  0.0000000    0.00000       Uiso       1.00
