data_COF-366-F4-Co
_audit_creation_date              0000-00-00
_audit_creation_method            'LanYouShi'
_symmetry_space_group_name_H-M    'P1'
_cell_length_a                    40.3680992
_cell_length_b                    31.4986000
_cell_length_c                    4.6143999
_cell_angle_alpha                 90.0000000
_cell_angle_beta                  90.0000000
_cell_angle_gamma                 90.0000000
loop_
_atom_site_label
_atom_site_type_symbol
_atom_site_fract_x
_atom_site_fract_y
_atom_site_fract_z
_atom_site_U_iso_or_equiv
_atom_site_adp_type
_atom_site_occupancy
       xx1          C  0.3604600  0.3726600 -0.3183300    0.00000       Uiso       1.00
       xx2          C  0.3893100  0.3974700 -0.3113800    0.00000       Uiso       1.00
       xx3          C  0.4138300  0.3915600 -0.0967200    0.00000       Uiso       1.00
       xx4          C  0.3554900  0.3394200 -0.1214500    0.00000       Uiso       1.00
       xx5          H  0.3415900  0.3798300 -0.4779700    0.00000       Uiso       1.00
       xx6          H  0.3917900  0.4229100 -0.4678900    0.00000       Uiso       1.00
       xx7          C  0.5905400  0.6432400  0.0934400    0.00000       Uiso       1.00
       xx8          H  0.6212200  0.6945400  0.2360200    0.00000       Uiso       1.00
       xx9          H  0.5731900  0.6487100  0.2684300    0.00000       Uiso       1.00
      xx10          F  0.2654200  0.6813800  0.3462600    0.00000       Uiso       1.00
      xx11          N  0.1742700  0.8183400 -0.1283000    0.00000       Uiso       1.00
      xx12          C  0.1849200  0.7854400  0.0403000    0.00000       Uiso       1.00
      xx13          C  0.2173700  0.7680900  0.0161700    0.00000       Uiso       1.00
      xx14          C  0.2415300  0.7848400 -0.1738900    0.00000       Uiso       1.00
      xx15          C  0.2265100  0.7329500  0.1892600    0.00000       Uiso       1.00
      xx16          H  0.1683100  0.7718500  0.1988000    0.00000       Uiso       1.00
      xx17          F  0.2043600  0.7154600  0.3761400    0.00000       Uiso       1.00
      xx18          C  0.4732700  0.4106800 -0.0275400    0.00000       Uiso       1.00
      xx19          C  0.4397500  0.4228000 -0.0560800    0.00000       Uiso       1.00
      xx20          C  0.4306800  0.4658800 -0.0290800    0.00000       Uiso       1.00
      xx21          C  0.4834900  0.3687300 -0.0252900    0.00000       Uiso       1.00
      xx22          C  0.3979300  0.4787700 -0.0106300    0.00000       Uiso       1.00
      xx23          H  0.4690200  0.3402700 -0.0556700    0.00000       Uiso       1.00
      xx24          H  0.3755700  0.4599800 -0.0066800    0.00000       Uiso       1.00
      xx25          C  0.6189500  0.6693000  0.0790200    0.00000       Uiso       1.00
      xx26          C  0.6395400  0.6273400 -0.3183300    0.00000       Uiso       1.00
      xx27          C  0.6106900  0.6025300 -0.3113800    0.00000       Uiso       1.00
      xx28          C  0.5861700  0.6084400 -0.0967200    0.00000       Uiso       1.00
      xx29          C  0.6445100  0.6605800 -0.1214500    0.00000       Uiso       1.00
      xx30          H  0.6584100  0.6201700 -0.4779700    0.00000       Uiso       1.00
      xx31          H  0.6082100  0.5770900 -0.4678900    0.00000       Uiso       1.00
      xx32          C  0.4094600  0.3567600  0.0934400    0.00000       Uiso       1.00
      xx33          H  0.3787800  0.3054600  0.2360200    0.00000       Uiso       1.00
      xx34          H  0.4268100  0.3512900  0.2684300    0.00000       Uiso       1.00
      xx35          F  0.7345800  0.3186200  0.3462600    0.00000       Uiso       1.00
      xx36          N  0.8257300  0.1816600 -0.1283000    0.00000       Uiso       1.00
      xx37          C  0.8150800  0.2145600  0.0403000    0.00000       Uiso       1.00
      xx38          C  0.7826300  0.2319100  0.0161700    0.00000       Uiso       1.00
      xx39          C  0.7584700  0.2151600 -0.1738900    0.00000       Uiso       1.00
      xx40          C  0.7734900  0.2670500  0.1892600    0.00000       Uiso       1.00
      xx41          H  0.8316900  0.2281500  0.1988000    0.00000       Uiso       1.00
      xx42          F  0.7956400  0.2845400  0.3761400    0.00000       Uiso       1.00
      xx43          C  0.5267300  0.5893200 -0.0275400    0.00000       Uiso       1.00
      xx44          C  0.5602500  0.5772000 -0.0560800    0.00000       Uiso       1.00
      xx45          C  0.5693200  0.5341200 -0.0290800    0.00000       Uiso       1.00
      xx46          C  0.5165100  0.6312700 -0.0252900    0.00000       Uiso       1.00
      xx47          C  0.6020700  0.5212300 -0.0106300    0.00000       Uiso       1.00
      xx48          H  0.5309800  0.6597300 -0.0556700    0.00000       Uiso       1.00
      xx49          H  0.6244300  0.5400200 -0.0066800    0.00000       Uiso       1.00
      xx50          C  0.3810500  0.3307000  0.0790200    0.00000       Uiso       1.00
      xx51          C  0.6395400  0.3726600  0.3183300    0.00000       Uiso       1.00
      xx52          C  0.6106900  0.3974700  0.3113800    0.00000       Uiso       1.00
      xx53          C  0.5861700  0.3915600  0.0967200    0.00000       Uiso       1.00
      xx54          C  0.6445100  0.3394200  0.1214500    0.00000       Uiso       1.00
      xx55          H  0.6584100  0.3798300  0.4779700    0.00000       Uiso       1.00
      xx56          H  0.6082100  0.4229100  0.4678900    0.00000       Uiso       1.00
      xx57          C  0.4094600  0.6432400 -0.0934400    0.00000       Uiso       1.00
      xx58          H  0.3787800  0.6945400 -0.2360200    0.00000       Uiso       1.00
      xx59          H  0.4268100  0.6487100 -0.2684300    0.00000       Uiso       1.00
      xx60          F  0.7345800  0.6813800 -0.3462600    0.00000       Uiso       1.00
      xx61          N  0.8257300  0.8183400  0.1283000    0.00000       Uiso       1.00
      xx62          C  0.8150800  0.7854400 -0.0403000    0.00000       Uiso       1.00
      xx63          C  0.7826300  0.7680900 -0.0161700    0.00000       Uiso       1.00
      xx64          C  0.7584700  0.7848400  0.1738900    0.00000       Uiso       1.00
      xx65          C  0.7734900  0.7329500 -0.1892600    0.00000       Uiso       1.00
      xx66          H  0.8316900  0.7718500 -0.1988000    0.00000       Uiso       1.00
      xx67          F  0.7956400  0.7154600 -0.3761400    0.00000       Uiso       1.00
      xx68          C  0.5267300  0.4106800  0.0275400    0.00000       Uiso       1.00
      xx69          C  0.5602500  0.4228000  0.0560800    0.00000       Uiso       1.00
      xx70          C  0.5693200  0.4658800  0.0290800    0.00000       Uiso       1.00
      xx71          C  0.5165100  0.3687300  0.0252900    0.00000       Uiso       1.00
      xx72          C  0.6020700  0.4787700  0.0106300    0.00000       Uiso       1.00
      xx73          H  0.5309800  0.3402700  0.0556700    0.00000       Uiso       1.00
      xx74          H  0.6244300  0.4599800  0.0066800    0.00000       Uiso       1.00
      xx75          C  0.3810500  0.6693000 -0.0790200    0.00000       Uiso       1.00
      xx76          C  0.3604600  0.6273400  0.3183300    0.00000       Uiso       1.00
      xx77          C  0.3893100  0.6025300  0.3113800    0.00000       Uiso       1.00
      xx78          C  0.4138300  0.6084400  0.0967200    0.00000       Uiso       1.00
      xx79          C  0.3554900  0.6605800  0.1214500    0.00000       Uiso       1.00
      xx80          H  0.3415900  0.6201700  0.4779700    0.00000       Uiso       1.00
      xx81          H  0.3917900  0.5770900  0.4678900    0.00000       Uiso       1.00
      xx82          C  0.5905400  0.3567600 -0.0934400    0.00000       Uiso       1.00
      xx83          H  0.6212200  0.3054600 -0.2360200    0.00000       Uiso       1.00
      xx84          H  0.5731900  0.3512900 -0.2684300    0.00000       Uiso       1.00
      xx85          F  0.2654200  0.3186200 -0.3462600    0.00000       Uiso       1.00
      xx86          N  0.1742700  0.1816600  0.1283000    0.00000       Uiso       1.00
      xx87          C  0.1849200  0.2145600 -0.0403000    0.00000       Uiso       1.00
      xx88          C  0.2173700  0.2319100 -0.0161700    0.00000       Uiso       1.00
      xx89          C  0.2415300  0.2151600  0.1738900    0.00000       Uiso       1.00
      xx90          C  0.2265100  0.2670500 -0.1892600    0.00000       Uiso       1.00
      xx91          H  0.1683100  0.2281500 -0.1988000    0.00000       Uiso       1.00
      xx92          F  0.2043600  0.2845400 -0.3761400    0.00000       Uiso       1.00
      xx93          C  0.4732700  0.5893200  0.0275400    0.00000       Uiso       1.00
      xx94          C  0.4397500  0.5772000  0.0560800    0.00000       Uiso       1.00
      xx95          C  0.4306800  0.5341200  0.0290800    0.00000       Uiso       1.00
      xx96          C  0.4834900  0.6312700  0.0252900    0.00000       Uiso       1.00
      xx97          C  0.3979300  0.5212300  0.0106300    0.00000       Uiso       1.00
      xx98          H  0.4690200  0.6597300  0.0556700    0.00000       Uiso       1.00
      xx99          H  0.3755700  0.5400200  0.0066800    0.00000       Uiso       1.00
     xx100          C  0.6189500  0.3307000 -0.0790200    0.00000       Uiso       1.00
     xx101          C  0.1395400  0.1273400  0.3183300    0.00000       Uiso       1.00
     xx102          C  0.1106900  0.1025300  0.3113800    0.00000       Uiso       1.00
     xx103          C  0.0861700  0.1084400  0.0967200    0.00000       Uiso       1.00
     xx104          C  0.1445100  0.1605800  0.1214500    0.00000       Uiso       1.00
     xx105          H  0.1584100  0.1201700  0.4779700    0.00000       Uiso       1.00
     xx106          H  0.1082100  0.0770900  0.4678900    0.00000       Uiso       1.00
     xx107          C  0.9094600  0.8567600 -0.0934400    0.00000       Uiso       1.00
     xx108          H  0.8787800  0.8054600 -0.2360200    0.00000       Uiso       1.00
     xx109          H  0.9268100  0.8512900 -0.2684300    0.00000       Uiso       1.00
     xx110          F  0.2345800  0.8186200 -0.3462600    0.00000       Uiso       1.00
     xx111          N  0.3257300  0.6816600  0.1283000    0.00000       Uiso       1.00
     xx112          C  0.3150800  0.7145600 -0.0403000    0.00000       Uiso       1.00
     xx113          C  0.2826300  0.7319100 -0.0161700    0.00000       Uiso       1.00
     xx114          C  0.2584700  0.7151600  0.1738900    0.00000       Uiso       1.00
     xx115          C  0.2734900  0.7670500 -0.1892600    0.00000       Uiso       1.00
     xx116          H  0.3316900  0.7281500 -0.1988000    0.00000       Uiso       1.00
     xx117          F  0.2956400  0.7845400 -0.3761400    0.00000       Uiso       1.00
     xx118          C  0.0267300  0.0893200  0.0275400    0.00000       Uiso       1.00
     xx119          C  0.0602500  0.0772000  0.0560800    0.00000       Uiso       1.00
     xx120          C  0.0693200  0.0341200  0.0290800    0.00000       Uiso       1.00
     xx121          C  0.0165100  0.1312700  0.0252900    0.00000       Uiso       1.00
     xx122          C  0.1020700  0.0212300  0.0106300    0.00000       Uiso       1.00
     xx123          H  0.0309800  0.1597300  0.0556700    0.00000       Uiso       1.00
     xx124          H  0.1244300  0.0400200  0.0066800    0.00000       Uiso       1.00
     xx125          C  0.8810501  0.8307000 -0.0790200    0.00000       Uiso       1.00
     xx126          C  0.8604600  0.8726600  0.3183300    0.00000       Uiso       1.00
     xx127          C  0.8893100  0.8974700  0.3113800    0.00000       Uiso       1.00
     xx128          C  0.9138300  0.8915600  0.0967200    0.00000       Uiso       1.00
     xx129          C  0.8554901  0.8394200  0.1214500    0.00000       Uiso       1.00
     xx130          H  0.8415900  0.8798300  0.4779700    0.00000       Uiso       1.00
     xx131          H  0.8917900  0.9229100  0.4678900    0.00000       Uiso       1.00
     xx132          C  0.0905400  0.1432400 -0.0934400    0.00000       Uiso       1.00
     xx133          H  0.1212200  0.1945400 -0.2360200    0.00000       Uiso       1.00
     xx134          H  0.0731900  0.1487100 -0.2684300    0.00000       Uiso       1.00
     xx135          F  0.7654200  0.1813800 -0.3462600    0.00000       Uiso       1.00
     xx136          N  0.6742700  0.3183400  0.1283000    0.00000       Uiso       1.00
     xx137          C  0.6849200  0.2854400 -0.0403000    0.00000       Uiso       1.00
     xx138          C  0.7173700  0.2680900 -0.0161700    0.00000       Uiso       1.00
     xx139          C  0.7415300  0.2848400  0.1738900    0.00000       Uiso       1.00
     xx140          C  0.7265100  0.2329500 -0.1892600    0.00000       Uiso       1.00
     xx141          H  0.6683100  0.2718500 -0.1988000    0.00000       Uiso       1.00
     xx142          F  0.7043600  0.2154600 -0.3761400    0.00000       Uiso       1.00
     xx143          C  0.9732700  0.9106800  0.0275400    0.00000       Uiso       1.00
     xx144          C  0.9397500  0.9228000  0.0560800    0.00000       Uiso       1.00
     xx145          C  0.9306800  0.9658800  0.0290800    0.00000       Uiso       1.00
     xx146          C  0.9834900  0.8687300  0.0252900    0.00000       Uiso       1.00
     xx147          C  0.8979301  0.9787700  0.0106300    0.00000       Uiso       1.00
     xx148          H  0.9690200  0.8402700  0.0556700    0.00000       Uiso       1.00
     xx149          H  0.8755700  0.9599800  0.0066800    0.00000       Uiso       1.00
     xx150          C  0.1189500  0.1693000 -0.0790200    0.00000       Uiso       1.00
     xx151          C  0.8604600  0.1273400 -0.3183300    0.00000       Uiso       1.00
     xx152          C  0.8893100  0.1025300 -0.3113800    0.00000       Uiso       1.00
     xx153          C  0.9138300  0.1084400 -0.0967200    0.00000       Uiso       1.00
     xx154          C  0.8554901  0.1605800 -0.1214500    0.00000       Uiso       1.00
     xx155          H  0.8415900  0.1201700 -0.4779700    0.00000       Uiso       1.00
     xx156          H  0.8917900  0.0770900 -0.4678900    0.00000       Uiso       1.00
     xx157          C  0.0905400  0.8567600  0.0934400    0.00000       Uiso       1.00
     xx158          H  0.1212200  0.8054600  0.2360200    0.00000       Uiso       1.00
     xx159          H  0.0731900  0.8512900  0.2684300    0.00000       Uiso       1.00
     xx160          F  0.7654200  0.8186200  0.3462600    0.00000       Uiso       1.00
     xx161          N  0.6742700  0.6816600 -0.1283000    0.00000       Uiso       1.00
     xx162          C  0.6849200  0.7145600  0.0403000    0.00000       Uiso       1.00
     xx163          C  0.7173700  0.7319100  0.0161700    0.00000       Uiso       1.00
     xx164          C  0.7415300  0.7151600 -0.1738900    0.00000       Uiso       1.00
     xx165          C  0.7265100  0.7670500  0.1892600    0.00000       Uiso       1.00
     xx166          H  0.6683100  0.7281500  0.1988000    0.00000       Uiso       1.00
     xx167          F  0.7043600  0.7845400  0.3761400    0.00000       Uiso       1.00
     xx168          C  0.9732700  0.0893200 -0.0275400    0.00000       Uiso       1.00
     xx169          C  0.9397500  0.0772000 -0.0560800    0.00000       Uiso       1.00
     xx170          C  0.9306800  0.0341200 -0.0290800    0.00000       Uiso       1.00
     xx171          C  0.9834900  0.1312700 -0.0252900    0.00000       Uiso       1.00
     xx172          C  0.8979301  0.0212300 -0.0106300    0.00000       Uiso       1.00
     xx173          H  0.9690200  0.1597300 -0.0556700    0.00000       Uiso       1.00
     xx174          H  0.8755700  0.0400200 -0.0066800    0.00000       Uiso       1.00
     xx175          C  0.1189500  0.8307000  0.0790200    0.00000       Uiso       1.00
     xx176          C  0.1395400  0.8726600 -0.3183300    0.00000       Uiso       1.00
     xx177          C  0.1106900  0.8974700 -0.3113800    0.00000       Uiso       1.00
     xx178          C  0.0861700  0.8915600 -0.0967200    0.00000       Uiso       1.00
     xx179          C  0.1445100  0.8394200 -0.1214500    0.00000       Uiso       1.00
     xx180          H  0.1584100  0.8798300 -0.4779700    0.00000       Uiso       1.00
     xx181          H  0.1082100  0.9229100 -0.4678900    0.00000       Uiso       1.00
     xx182          C  0.9094600  0.1432400  0.0934400    0.00000       Uiso       1.00
     xx183          H  0.8787800  0.1945400  0.2360200    0.00000       Uiso       1.00
     xx184          H  0.9268100  0.1487100  0.2684300    0.00000       Uiso       1.00
     xx185          F  0.2345800  0.1813800  0.3462600    0.00000       Uiso       1.00
     xx186          N  0.3257300  0.3183400 -0.1283000    0.00000       Uiso       1.00
     xx187          C  0.3150800  0.2854400  0.0403000    0.00000       Uiso       1.00
     xx188          C  0.2826300  0.2680900  0.0161700    0.00000       Uiso       1.00
     xx189          C  0.2584700  0.2848400 -0.1738900    0.00000       Uiso       1.00
     xx190          C  0.2734900  0.2329500  0.1892600    0.00000       Uiso       1.00
     xx191          H  0.3316900  0.2718500  0.1988000    0.00000       Uiso       1.00
     xx192          F  0.2956400  0.2154600  0.3761400    0.00000       Uiso       1.00
     xx193          C  0.0267300  0.9106800 -0.0275400    0.00000       Uiso       1.00
     xx194          C  0.0602500  0.9228000 -0.0560800    0.00000       Uiso       1.00
     xx195          C  0.0693200  0.9658800 -0.0290800    0.00000       Uiso       1.00
     xx196          C  0.0165100  0.8687300 -0.0252900    0.00000       Uiso       1.00
     xx197          C  0.1020700  0.9787700 -0.0106300    0.00000       Uiso       1.00
     xx198          H  0.0309800  0.8402700 -0.0556700    0.00000       Uiso       1.00
     xx199          H  0.1244300  0.9599800 -0.0066800    0.00000       Uiso       1.00
     xx200          C  0.8810501  0.1693000  0.0790200    0.00000       Uiso       1.00
     xx201          N  0.5000000  0.5627300  0.0000000    0.00000       Uiso       1.00
     xx202          N  0.5000000  0.4372700  0.0000000    0.00000       Uiso       1.00
     xx203          N  0.0000000  0.9372700  0.0000000    0.00000       Uiso       1.00
     xx204          N  0.0000000  0.0627300  0.0000000    0.00000       Uiso       1.00
     xx205          N  0.4514100  0.5000000  0.0000000    0.00000       Uiso       1.00
     xx206          N  0.5485900  0.5000000  0.0000000    0.00000       Uiso       1.00
     xx207          N  0.0485900  0.0000000  0.0000000    0.00000       Uiso       1.00
     xx208          N  0.9514100  0.0000000  0.0000000    0.00000       Uiso       1.00
     xx209         Co  0.5000000  0.5000000  0.0000000    0.00000       Uiso       1.00
     xx210         Co  0.0000000  0.0000000  0.0000000    0.00000       Uiso       1.00
