data_COF-366-F-Co
_audit_creation_date              0000-00-00
_audit_creation_method            'LanYouShi'
_symmetry_space_group_name_H-M    'P1'
_cell_length_a                    42.4324989
_cell_length_b                    30.6471004
_cell_length_c                    4.6596999
_cell_angle_alpha                 90.0000000
_cell_angle_beta                  90.0000000
_cell_angle_gamma                 90.0000000
loop_
_atom_site_label
_atom_site_type_symbol
_atom_site_fract_x
_atom_site_fract_y
_atom_site_fract_z
_atom_site_U_iso_or_equiv
_atom_site_adp_type
_atom_site_occupancy
       xx1          C  0.3629900  0.3710500 -0.2913700    0.00000       Uiso       1.00
       xx2          C  0.3917700  0.3947300 -0.2866600    0.00000       Uiso       1.00
       xx3          C  0.4154800  0.3881500 -0.0750600    0.00000       Uiso       1.00
       xx4          C  0.3564600  0.3376200 -0.0948200    0.00000       Uiso       1.00
       xx5          H  0.3948700  0.4202200 -0.4440600    0.00000       Uiso       1.00
       xx6          C  0.6189500  0.6722800  0.1028200    0.00000       Uiso       1.00
       xx7          C  0.5901700  0.6474400  0.1128000    0.00000       Uiso       1.00
       xx8          H  0.6221700  0.6978600  0.2585800    0.00000       Uiso       1.00
       xx9          H  0.5734400  0.6543100  0.2826600    0.00000       Uiso       1.00
      xx10          C  0.4739600  0.4079300 -0.0142700    0.00000       Uiso       1.00
      xx11          C  0.4331200  0.4647500 -0.0175300    0.00000       Uiso       1.00
      xx12          C  0.4838800  0.3651100 -0.0132600    0.00000       Uiso       1.00
      xx13          C  0.4018300  0.4782500 -0.0017700    0.00000       Uiso       1.00
      xx14          H  0.4695200  0.3361900 -0.0304200    0.00000       Uiso       1.00
      xx15          H  0.3803700  0.4592300  0.0105200    0.00000       Uiso       1.00
      xx16          C  0.5586800  0.4200900  0.0363100    0.00000       Uiso       1.00
      xx17          N  0.1732000  0.8175400 -0.1042900    0.00000       Uiso       1.00
      xx18          C  0.1858000  0.7843800  0.0591700    0.00000       Uiso       1.00
      xx19          C  0.2178000  0.7675500  0.0263200    0.00000       Uiso       1.00
      xx20          C  0.2399700  0.7848600 -0.1699300    0.00000       Uiso       1.00
      xx21          C  0.2286900  0.7321200  0.1957000    0.00000       Uiso       1.00
      xx22          H  0.1709400  0.7698100  0.2217500    0.00000       Uiso       1.00
      xx23          H  0.2331700  0.8118000 -0.3056700    0.00000       Uiso       1.00
      xx24          F  0.2910800  0.7865400 -0.3893600    0.00000       Uiso       1.00
      xx25          C  0.6370100  0.6289500 -0.2913700    0.00000       Uiso       1.00
      xx26          C  0.6082300  0.6052700 -0.2866600    0.00000       Uiso       1.00
      xx27          C  0.5845200  0.6118500 -0.0750600    0.00000       Uiso       1.00
      xx28          C  0.6435400  0.6623800 -0.0948200    0.00000       Uiso       1.00
      xx29          H  0.6051300  0.5797800 -0.4440600    0.00000       Uiso       1.00
      xx30          C  0.3810500  0.3277200  0.1028200    0.00000       Uiso       1.00
      xx31          C  0.4098300  0.3525600  0.1128000    0.00000       Uiso       1.00
      xx32          H  0.3778300  0.3021400  0.2585800    0.00000       Uiso       1.00
      xx33          H  0.4265600  0.3456900  0.2826600    0.00000       Uiso       1.00
      xx34          C  0.5260400  0.5920700 -0.0142700    0.00000       Uiso       1.00
      xx35          C  0.5668800  0.5352500 -0.0175300    0.00000       Uiso       1.00
      xx36          C  0.5161200  0.6348900 -0.0132600    0.00000       Uiso       1.00
      xx37          C  0.5981700  0.5217500 -0.0017700    0.00000       Uiso       1.00
      xx38          H  0.5304800  0.6638100 -0.0304200    0.00000       Uiso       1.00
      xx39          H  0.6196300  0.5407700  0.0105200    0.00000       Uiso       1.00
      xx40          C  0.4413200  0.5799100  0.0363100    0.00000       Uiso       1.00
      xx41          N  0.8268000  0.1824600 -0.1042900    0.00000       Uiso       1.00
      xx42          C  0.8141999  0.2156200  0.0591700    0.00000       Uiso       1.00
      xx43          C  0.7822000  0.2324500  0.0263200    0.00000       Uiso       1.00
      xx44          C  0.7600299  0.2151400 -0.1699300    0.00000       Uiso       1.00
      xx45          C  0.7713100  0.2678800  0.1957000    0.00000       Uiso       1.00
      xx46          H  0.8290600  0.2301900  0.2217500    0.00000       Uiso       1.00
      xx47          H  0.7668300  0.1882000 -0.3056700    0.00000       Uiso       1.00
      xx48          F  0.7089200  0.2134600 -0.3893600    0.00000       Uiso       1.00
      xx49          C  0.6370100  0.3710500  0.2913700    0.00000       Uiso       1.00
      xx50          C  0.6082300  0.3947300  0.2866600    0.00000       Uiso       1.00
      xx51          C  0.5845200  0.3881500  0.0750600    0.00000       Uiso       1.00
      xx52          C  0.6435400  0.3376200  0.0948200    0.00000       Uiso       1.00
      xx53          H  0.6051300  0.4202200  0.4440600    0.00000       Uiso       1.00
      xx54          C  0.3810500  0.6722800 -0.1028200    0.00000       Uiso       1.00
      xx55          C  0.4098300  0.6474400 -0.1128000    0.00000       Uiso       1.00
      xx56          H  0.3778300  0.6978600 -0.2585800    0.00000       Uiso       1.00
      xx57          H  0.4265600  0.6543100 -0.2826600    0.00000       Uiso       1.00
      xx58          C  0.5260400  0.4079300  0.0142700    0.00000       Uiso       1.00
      xx59          C  0.5668800  0.4647500  0.0175300    0.00000       Uiso       1.00
      xx60          C  0.5161200  0.3651100  0.0132600    0.00000       Uiso       1.00
      xx61          C  0.5981700  0.4782500  0.0017700    0.00000       Uiso       1.00
      xx62          H  0.5304800  0.3361900  0.0304200    0.00000       Uiso       1.00
      xx63          H  0.6196300  0.4592300 -0.0105200    0.00000       Uiso       1.00
      xx64          C  0.4413200  0.4200900 -0.0363100    0.00000       Uiso       1.00
      xx65          N  0.8268000  0.8175400  0.1042900    0.00000       Uiso       1.00
      xx66          C  0.8141999  0.7843800 -0.0591700    0.00000       Uiso       1.00
      xx67          C  0.7822000  0.7675500 -0.0263200    0.00000       Uiso       1.00
      xx68          C  0.7600299  0.7848600  0.1699300    0.00000       Uiso       1.00
      xx69          C  0.7713100  0.7321200 -0.1957000    0.00000       Uiso       1.00
      xx70          H  0.8290600  0.7698100 -0.2217500    0.00000       Uiso       1.00
      xx71          H  0.7668300  0.8118000  0.3056700    0.00000       Uiso       1.00
      xx72          F  0.7089200  0.7865400  0.3893600    0.00000       Uiso       1.00
      xx73          C  0.3629900  0.6289500  0.2913700    0.00000       Uiso       1.00
      xx74          C  0.3917700  0.6052700  0.2866600    0.00000       Uiso       1.00
      xx75          C  0.4154800  0.6118500  0.0750600    0.00000       Uiso       1.00
      xx76          C  0.3564600  0.6623800  0.0948200    0.00000       Uiso       1.00
      xx77          H  0.3948700  0.5797800  0.4440600    0.00000       Uiso       1.00
      xx78          C  0.6189500  0.3277200 -0.1028200    0.00000       Uiso       1.00
      xx79          C  0.5901700  0.3525600 -0.1128000    0.00000       Uiso       1.00
      xx80          H  0.6221700  0.3021400 -0.2585800    0.00000       Uiso       1.00
      xx81          H  0.5734400  0.3456900 -0.2826600    0.00000       Uiso       1.00
      xx82          C  0.4739600  0.5920700  0.0142700    0.00000       Uiso       1.00
      xx83          C  0.4331200  0.5352500  0.0175300    0.00000       Uiso       1.00
      xx84          C  0.4838800  0.6348900  0.0132600    0.00000       Uiso       1.00
      xx85          C  0.4018300  0.5217500  0.0017700    0.00000       Uiso       1.00
      xx86          H  0.4695200  0.6638100  0.0304200    0.00000       Uiso       1.00
      xx87          H  0.3803700  0.5407700 -0.0105200    0.00000       Uiso       1.00
      xx88          C  0.5586800  0.5799100 -0.0363100    0.00000       Uiso       1.00
      xx89          N  0.1732000  0.1824600  0.1042900    0.00000       Uiso       1.00
      xx90          C  0.1858000  0.2156200 -0.0591700    0.00000       Uiso       1.00
      xx91          C  0.2178000  0.2324500 -0.0263200    0.00000       Uiso       1.00
      xx92          C  0.2399700  0.2151400  0.1699300    0.00000       Uiso       1.00
      xx93          C  0.2286900  0.2678800 -0.1957000    0.00000       Uiso       1.00
      xx94          H  0.1709400  0.2301900 -0.2217500    0.00000       Uiso       1.00
      xx95          H  0.2331700  0.1882000  0.3056700    0.00000       Uiso       1.00
      xx96          F  0.2910800  0.2134600  0.3893600    0.00000       Uiso       1.00
      xx97          C  0.1370100  0.1289500  0.2913700    0.00000       Uiso       1.00
      xx98          C  0.1082300  0.1052700  0.2866600    0.00000       Uiso       1.00
      xx99          C  0.0845200  0.1118500  0.0750600    0.00000       Uiso       1.00
     xx100          C  0.1435400  0.1623800  0.0948200    0.00000       Uiso       1.00
     xx101          H  0.1051300  0.0797800  0.4440600    0.00000       Uiso       1.00
     xx102          C  0.8810499  0.8277200 -0.1028200    0.00000       Uiso       1.00
     xx103          C  0.9098299  0.8525600 -0.1128000    0.00000       Uiso       1.00
     xx104          H  0.8778300  0.8021400 -0.2585800    0.00000       Uiso       1.00
     xx105          H  0.9265599  0.8456900 -0.2826600    0.00000       Uiso       1.00
     xx106          C  0.0260400  0.0920700  0.0142700    0.00000       Uiso       1.00
     xx107          C  0.0668800  0.0352500  0.0175300    0.00000       Uiso       1.00
     xx108          C  0.0161200  0.1348900  0.0132600    0.00000       Uiso       1.00
     xx109          C  0.0981700  0.0217500  0.0017700    0.00000       Uiso       1.00
     xx110          H  0.0304800  0.1638100  0.0304200    0.00000       Uiso       1.00
     xx111          H  0.1196300  0.0407700 -0.0105200    0.00000       Uiso       1.00
     xx112          C  0.9413199  0.0799100 -0.0363100    0.00000       Uiso       1.00
     xx113          N  0.3268000  0.6824600  0.1042900    0.00000       Uiso       1.00
     xx114          C  0.3142000  0.7156200 -0.0591700    0.00000       Uiso       1.00
     xx115          C  0.2822000  0.7324500 -0.0263200    0.00000       Uiso       1.00
     xx116          C  0.2600300  0.7151400  0.1699300    0.00000       Uiso       1.00
     xx117          C  0.2713100  0.7678800 -0.1957000    0.00000       Uiso       1.00
     xx118          H  0.3290600  0.7301900 -0.2217500    0.00000       Uiso       1.00
     xx119          H  0.2668300  0.6882000  0.3056700    0.00000       Uiso       1.00
     xx120          F  0.2089200  0.7134600  0.3893600    0.00000       Uiso       1.00
     xx121          C  0.8629900  0.8710500  0.2913700    0.00000       Uiso       1.00
     xx122          C  0.8917700  0.8947300  0.2866600    0.00000       Uiso       1.00
     xx123          C  0.9154800  0.8881500  0.0750600    0.00000       Uiso       1.00
     xx124          C  0.8564600  0.8376200  0.0948200    0.00000       Uiso       1.00
     xx125          H  0.8948700  0.9202200  0.4440600    0.00000       Uiso       1.00
     xx126          C  0.1189500  0.1722800 -0.1028200    0.00000       Uiso       1.00
     xx127          C  0.0901700  0.1474400 -0.1128000    0.00000       Uiso       1.00
     xx128          H  0.1221700  0.1978600 -0.2585800    0.00000       Uiso       1.00
     xx129          H  0.0734400  0.1543100 -0.2826600    0.00000       Uiso       1.00
     xx130          C  0.9739600  0.9079300  0.0142700    0.00000       Uiso       1.00
     xx131          C  0.9331200  0.9647500  0.0175300    0.00000       Uiso       1.00
     xx132          C  0.9838800  0.8651100  0.0132600    0.00000       Uiso       1.00
     xx133          C  0.9018301  0.9782500  0.0017700    0.00000       Uiso       1.00
     xx134          H  0.9695200  0.8361900  0.0304200    0.00000       Uiso       1.00
     xx135          H  0.8803700  0.9592300 -0.0105200    0.00000       Uiso       1.00
     xx136          C  0.0586800  0.9200900 -0.0363100    0.00000       Uiso       1.00
     xx137          N  0.6732000  0.3175400  0.1042900    0.00000       Uiso       1.00
     xx138          C  0.6858000  0.2843800 -0.0591700    0.00000       Uiso       1.00
     xx139          C  0.7178000  0.2675500 -0.0263200    0.00000       Uiso       1.00
     xx140          C  0.7399700  0.2848600  0.1699300    0.00000       Uiso       1.00
     xx141          C  0.7286900  0.2321200 -0.1957000    0.00000       Uiso       1.00
     xx142          H  0.6709400  0.2698100 -0.2217500    0.00000       Uiso       1.00
     xx143          H  0.7331700  0.3118000  0.3056700    0.00000       Uiso       1.00
     xx144          F  0.7910800  0.2865400  0.3893600    0.00000       Uiso       1.00
     xx145          C  0.8629900  0.1289500 -0.2913700    0.00000       Uiso       1.00
     xx146          C  0.8917700  0.1052700 -0.2866600    0.00000       Uiso       1.00
     xx147          C  0.9154800  0.1118500 -0.0750600    0.00000       Uiso       1.00
     xx148          C  0.8564600  0.1623800 -0.0948200    0.00000       Uiso       1.00
     xx149          H  0.8948700  0.0797800 -0.4440600    0.00000       Uiso       1.00
     xx150          C  0.1189500  0.8277200  0.1028200    0.00000       Uiso       1.00
     xx151          C  0.0901700  0.8525600  0.1128000    0.00000       Uiso       1.00
     xx152          H  0.1221700  0.8021400  0.2585800    0.00000       Uiso       1.00
     xx153          H  0.0734400  0.8456900  0.2826600    0.00000       Uiso       1.00
     xx154          C  0.9739600  0.0920700 -0.0142700    0.00000       Uiso       1.00
     xx155          C  0.9331200  0.0352500 -0.0175300    0.00000       Uiso       1.00
     xx156          C  0.9838800  0.1348900 -0.0132600    0.00000       Uiso       1.00
     xx157          C  0.9018301  0.0217500 -0.0017700    0.00000       Uiso       1.00
     xx158          H  0.9695200  0.1638100 -0.0304200    0.00000       Uiso       1.00
     xx159          H  0.8803700  0.0407700  0.0105200    0.00000       Uiso       1.00
     xx160          C  0.0586800  0.0799100  0.0363100    0.00000       Uiso       1.00
     xx161          N  0.6732000  0.6824600 -0.1042900    0.00000       Uiso       1.00
     xx162          C  0.6858000  0.7156200  0.0591700    0.00000       Uiso       1.00
     xx163          C  0.7178000  0.7324500  0.0263200    0.00000       Uiso       1.00
     xx164          C  0.7399700  0.7151400 -0.1699300    0.00000       Uiso       1.00
     xx165          C  0.7286900  0.7678800  0.1957000    0.00000       Uiso       1.00
     xx166          H  0.6709400  0.7301900  0.2217500    0.00000       Uiso       1.00
     xx167          H  0.7331700  0.6882000 -0.3056700    0.00000       Uiso       1.00
     xx168          F  0.7910800  0.7134600 -0.3893600    0.00000       Uiso       1.00
     xx169          C  0.1370100  0.8710500 -0.2913700    0.00000       Uiso       1.00
     xx170          C  0.1082300  0.8947300 -0.2866600    0.00000       Uiso       1.00
     xx171          C  0.0845200  0.8881500 -0.0750600    0.00000       Uiso       1.00
     xx172          C  0.1435400  0.8376200 -0.0948200    0.00000       Uiso       1.00
     xx173          H  0.1051300  0.9202200 -0.4440600    0.00000       Uiso       1.00
     xx174          C  0.8810499  0.1722800  0.1028200    0.00000       Uiso       1.00
     xx175          C  0.9098299  0.1474400  0.1128000    0.00000       Uiso       1.00
     xx176          H  0.8778300  0.1978600  0.2585800    0.00000       Uiso       1.00
     xx177          H  0.9265599  0.1543100  0.2826600    0.00000       Uiso       1.00
     xx178          C  0.0260400  0.9079300 -0.0142700    0.00000       Uiso       1.00
     xx179          C  0.0668800  0.9647500 -0.0175300    0.00000       Uiso       1.00
     xx180          C  0.0161200  0.8651100 -0.0132600    0.00000       Uiso       1.00
     xx181          C  0.0981700  0.9782500 -0.0017700    0.00000       Uiso       1.00
     xx182          H  0.0304800  0.8361900 -0.0304200    0.00000       Uiso       1.00
     xx183          H  0.1196300  0.9592300  0.0105200    0.00000       Uiso       1.00
     xx184          C  0.9413199  0.9200900  0.0363100    0.00000       Uiso       1.00
     xx185          N  0.3268000  0.3175400 -0.1042900    0.00000       Uiso       1.00
     xx186          C  0.3142000  0.2843800  0.0591700    0.00000       Uiso       1.00
     xx187          C  0.2822000  0.2675500  0.0263200    0.00000       Uiso       1.00
     xx188          C  0.2600300  0.2848600 -0.1699300    0.00000       Uiso       1.00
     xx189          C  0.2713100  0.2321200  0.1957000    0.00000       Uiso       1.00
     xx190          H  0.3290600  0.2698100  0.2217500    0.00000       Uiso       1.00
     xx191          H  0.2668300  0.3118000 -0.3056700    0.00000       Uiso       1.00
     xx192          F  0.2089200  0.2865400 -0.3893600    0.00000       Uiso       1.00
     xx193          N  0.5000000  0.5647500  0.0000000    0.00000       Uiso       1.00
     xx194          N  0.5000000  0.4352500  0.0000000    0.00000       Uiso       1.00
     xx195          N  0.0000000  0.9352500  0.0000000    0.00000       Uiso       1.00
     xx196          N  0.0000000  0.0647500  0.0000000    0.00000       Uiso       1.00
     xx197          N  0.4531300  0.5000000  0.0000000    0.00000       Uiso       1.00
     xx198          N  0.5468700  0.5000000  0.0000000    0.00000       Uiso       1.00
     xx199          N  0.0468700  0.0000000  0.0000000    0.00000       Uiso       1.00
     xx200          N  0.9531300  0.0000000  0.0000000    0.00000       Uiso       1.00
     xx201         Co  0.5000000  0.5000000  0.0000000    0.00000       Uiso       1.00
     xx202         Co  0.0000000  0.0000000  0.0000000    0.00000       Uiso       1.00
