data_COF-366-OMe2-Co
_audit_creation_date              0000-00-00
_audit_creation_method            'LanYouShi'
_symmetry_space_group_name_H-M    'P1'
_cell_length_a                    44.7537003
_cell_length_b                    30.2936993
_cell_length_c                    4.6757002
_cell_angle_alpha                 90.0000000
_cell_angle_beta                  90.0000000
_cell_angle_gamma                 90.0000000
loop_
_atom_site_label
_atom_site_type_symbol
_atom_site_fract_x
_atom_site_fract_y
_atom_site_fract_z
_atom_site_U_iso_or_equiv
_atom_site_adp_type
_atom_site_occupancy
       xx1          C  0.4748900  0.4054800  0.4938200    0.00000       Uiso       1.00
       xx2          C  0.4432600  0.4175100  0.4772900    0.00000       Uiso       1.00
       xx3          C  0.4362600  0.4637500  0.4908000    0.00000       Uiso       1.00
       xx4          C  0.4845800  0.3620700  0.4941900    0.00000       Uiso       1.00
       xx5          C  0.4069200  0.4779300  0.5056400    0.00000       Uiso       1.00
       xx6          H  0.4707500  0.3328300  0.4863800    0.00000       Uiso       1.00
       xx7          H  0.3866100  0.4590400  0.5268600    0.00000       Uiso       1.00
       xx8          C  0.3656300  0.3704200  0.2342300    0.00000       Uiso       1.00
       xx9          C  0.3940400  0.3927500  0.2363900    0.00000       Uiso       1.00
      xx10          C  0.4172100  0.3851700  0.4425900    0.00000       Uiso       1.00
      xx11          C  0.3576600  0.3363200  0.4281400    0.00000       Uiso       1.00
      xx12          C  0.6186000  0.6748700  0.6220200    0.00000       Uiso       1.00
      xx13          C  0.5899000  0.6513400  0.6282000    0.00000       Uiso       1.00
      xx14          H  0.3493800  0.3804700  0.0752600    0.00000       Uiso       1.00
      xx15          H  0.3973800  0.4183200  0.0774400    0.00000       Uiso       1.00
      xx16          H  0.6222800  0.7008700  0.7768200    0.00000       Uiso       1.00
      xx17          H  0.5740500  0.6602200  0.7934600    0.00000       Uiso       1.00
      xx18          N  0.3283300  0.3173200  0.4149300    0.00000       Uiso       1.00
      xx19          C  0.3134600  0.2834700  0.5662500    0.00000       Uiso       1.00
      xx20          C  0.2817600  0.2672000  0.5289900    0.00000       Uiso       1.00
      xx21          C  0.2605200  0.2855200  0.3364500    0.00000       Uiso       1.00
      xx22          C  0.2703000  0.2304700  0.6930300    0.00000       Uiso       1.00
      xx23          H  0.3265800  0.2669300  0.7284000    0.00000       Uiso       1.00
      xx24          O  0.2905900  0.2105100  0.8853800    0.00000       Uiso       1.00
      xx25          C  0.2173400  0.6696001  1.0164300    0.00000       Uiso       1.00
      xx26          H  0.2682500  0.3128800  0.2082300    0.00000       Uiso       1.00
      xx27          H  0.2367500  0.6738800  1.1614300    0.00000       Uiso       1.00
      xx28          H  0.2221000  0.6442100  0.8508600    0.00000       Uiso       1.00
      xx29          H  0.1982400  0.6580200  1.1478400    0.00000       Uiso       1.00
      xx30          C  0.5251100  0.5945200  0.4938200    0.00000       Uiso       1.00
      xx31          C  0.5567400  0.5824900  0.4772900    0.00000       Uiso       1.00
      xx32          C  0.5637400  0.5362501  0.4908000    0.00000       Uiso       1.00
      xx33          C  0.5154200  0.6379300  0.4941900    0.00000       Uiso       1.00
      xx34          C  0.5930800  0.5220700  0.5056400    0.00000       Uiso       1.00
      xx35          H  0.5292500  0.6671700  0.4863800    0.00000       Uiso       1.00
      xx36          H  0.6133900  0.5409600  0.5268600    0.00000       Uiso       1.00
      xx37          C  0.6343700  0.6295800  0.2342300    0.00000       Uiso       1.00
      xx38          C  0.6059600  0.6072500  0.2363900    0.00000       Uiso       1.00
      xx39          C  0.5827900  0.6148300  0.4425900    0.00000       Uiso       1.00
      xx40          C  0.6423400  0.6636801  0.4281400    0.00000       Uiso       1.00
      xx41          C  0.3814000  0.3251300  0.6220200    0.00000       Uiso       1.00
      xx42          C  0.4101000  0.3486600  0.6282000    0.00000       Uiso       1.00
      xx43          H  0.6506200  0.6195300  0.0752600    0.00000       Uiso       1.00
      xx44          H  0.6026200  0.5816800  0.0774400    0.00000       Uiso       1.00
      xx45          H  0.3777200  0.2991300  0.7768200    0.00000       Uiso       1.00
      xx46          H  0.4259500  0.3397800  0.7934600    0.00000       Uiso       1.00
      xx47          N  0.6716700  0.6826800  0.4149300    0.00000       Uiso       1.00
      xx48          C  0.6865400  0.7165300  0.5662500    0.00000       Uiso       1.00
      xx49          C  0.7182400  0.7328000  0.5289900    0.00000       Uiso       1.00
      xx50          C  0.7394800  0.7144800  0.3364500    0.00000       Uiso       1.00
      xx51          C  0.7297000  0.7695300  0.6930300    0.00000       Uiso       1.00
      xx52          H  0.6734200  0.7330700  0.7284000    0.00000       Uiso       1.00
      xx53          O  0.7094100  0.7894900  0.8853800    0.00000       Uiso       1.00
      xx54          C  0.7826600  0.3304000  1.0164300    0.00000       Uiso       1.00
      xx55          H  0.7317500  0.6871200  0.2082300    0.00000       Uiso       1.00
      xx56          H  0.7632500  0.3261200  1.1614300    0.00000       Uiso       1.00
      xx57          H  0.7779000  0.3557900  0.8508600    0.00000       Uiso       1.00
      xx58          H  0.8017601  0.3419800  1.1478400    0.00000       Uiso       1.00
      xx59          C  0.5251100  0.4054800  0.5061800    0.00000       Uiso       1.00
      xx60          C  0.5567400  0.4175100  0.5227100    0.00000       Uiso       1.00
      xx61          C  0.5637400  0.4637500  0.5092000    0.00000       Uiso       1.00
      xx62          C  0.5154200  0.3620700  0.5058100    0.00000       Uiso       1.00
      xx63          C  0.5930800  0.4779300  0.4943600    0.00000       Uiso       1.00
      xx64          H  0.5292500  0.3328300  0.5136200    0.00000       Uiso       1.00
      xx65          H  0.6133900  0.4590400  0.4731400    0.00000       Uiso       1.00
      xx66          C  0.6343700  0.3704200  0.7657700    0.00000       Uiso       1.00
      xx67          C  0.6059600  0.3927500  0.7636100    0.00000       Uiso       1.00
      xx68          C  0.5827900  0.3851700  0.5574100    0.00000       Uiso       1.00
      xx69          C  0.6423400  0.3363200  0.5718600    0.00000       Uiso       1.00
      xx70          C  0.3814000  0.6748700  0.3779800    0.00000       Uiso       1.00
      xx71          C  0.4101000  0.6513400  0.3718000    0.00000       Uiso       1.00
      xx72          H  0.6506200  0.3804700  0.9247401    0.00000       Uiso       1.00
      xx73          H  0.6026200  0.4183200  0.9225600    0.00000       Uiso       1.00
      xx74          H  0.3777200  0.7008700  0.2231800    0.00000       Uiso       1.00
      xx75          H  0.4259500  0.6602200  0.2065400    0.00000       Uiso       1.00
      xx76          N  0.6716700  0.3173200  0.5850700    0.00000       Uiso       1.00
      xx77          C  0.6865400  0.2834700  0.4337500    0.00000       Uiso       1.00
      xx78          C  0.7182400  0.2672000  0.4710100    0.00000       Uiso       1.00
      xx79          C  0.7394800  0.2855200  0.6635500    0.00000       Uiso       1.00
      xx80          C  0.7297000  0.2304700  0.3069700    0.00000       Uiso       1.00
      xx81          H  0.6734200  0.2669300  0.2716000    0.00000       Uiso       1.00
      xx82          O  0.7094100  0.2105100  0.1146200    0.00000       Uiso       1.00
      xx83          C  0.7826600  0.6696001 -0.0164300    0.00000       Uiso       1.00
      xx84          H  0.7317500  0.3128800  0.7917700    0.00000       Uiso       1.00
      xx85          H  0.7632500  0.6738800 -0.1614300    0.00000       Uiso       1.00
      xx86          H  0.7779000  0.6442100  0.1491400    0.00000       Uiso       1.00
      xx87          H  0.8017601  0.6580200 -0.1478400    0.00000       Uiso       1.00
      xx88          C  0.4748900  0.5945200  0.5061800    0.00000       Uiso       1.00
      xx89          C  0.4432600  0.5824900  0.5227100    0.00000       Uiso       1.00
      xx90          C  0.4362600  0.5362501  0.5092000    0.00000       Uiso       1.00
      xx91          C  0.4845800  0.6379300  0.5058100    0.00000       Uiso       1.00
      xx92          C  0.4069200  0.5220700  0.4943600    0.00000       Uiso       1.00
      xx93          H  0.4707500  0.6671700  0.5136200    0.00000       Uiso       1.00
      xx94          H  0.3866100  0.5409600  0.4731400    0.00000       Uiso       1.00
      xx95          C  0.3656300  0.6295800  0.7657700    0.00000       Uiso       1.00
      xx96          C  0.3940400  0.6072500  0.7636100    0.00000       Uiso       1.00
      xx97          C  0.4172100  0.6148300  0.5574100    0.00000       Uiso       1.00
      xx98          C  0.3576600  0.6636801  0.5718600    0.00000       Uiso       1.00
      xx99          C  0.6186000  0.3251300  0.3779800    0.00000       Uiso       1.00
     xx100          C  0.5899000  0.3486600  0.3718000    0.00000       Uiso       1.00
     xx101          H  0.3493800  0.6195300  0.9247401    0.00000       Uiso       1.00
     xx102          H  0.3973800  0.5816800  0.9225600    0.00000       Uiso       1.00
     xx103          H  0.6222800  0.2991300  0.2231800    0.00000       Uiso       1.00
     xx104          H  0.5740500  0.3397800  0.2065400    0.00000       Uiso       1.00
     xx105          N  0.3283300  0.6826800  0.5850700    0.00000       Uiso       1.00
     xx106          C  0.3134600  0.7165300  0.4337500    0.00000       Uiso       1.00
     xx107          C  0.2817600  0.7328000  0.4710100    0.00000       Uiso       1.00
     xx108          C  0.2605200  0.7144800  0.6635500    0.00000       Uiso       1.00
     xx109          C  0.2703000  0.7695300  0.3069700    0.00000       Uiso       1.00
     xx110          H  0.3265800  0.7330700  0.2716000    0.00000       Uiso       1.00
     xx111          O  0.2905900  0.7894900  0.1146200    0.00000       Uiso       1.00
     xx112          C  0.2173400  0.3304000 -0.0164300    0.00000       Uiso       1.00
     xx113          H  0.2682500  0.6871200  0.7917700    0.00000       Uiso       1.00
     xx114          H  0.2367500  0.3261200 -0.1614300    0.00000       Uiso       1.00
     xx115          H  0.2221000  0.3557900  0.1491400    0.00000       Uiso       1.00
     xx116          H  0.1982400  0.3419800 -0.1478400    0.00000       Uiso       1.00
     xx117          C  0.0251100  0.0945200  0.5061800    0.00000       Uiso       1.00
     xx118          C  0.0567400  0.0824900  0.5227100    0.00000       Uiso       1.00
     xx119          C  0.0637400  0.0362500  0.5092000    0.00000       Uiso       1.00
     xx120          C  0.0154200  0.1379300  0.5058100    0.00000       Uiso       1.00
     xx121          C  0.0930800  0.0220700  0.4943600    0.00000       Uiso       1.00
     xx122          H  0.0292500  0.1671700  0.5136200    0.00000       Uiso       1.00
     xx123          H  0.1133900  0.0409600  0.4731400    0.00000       Uiso       1.00
     xx124          C  0.1343700  0.1295800  0.7657700    0.00000       Uiso       1.00
     xx125          C  0.1059600  0.1072500  0.7636100    0.00000       Uiso       1.00
     xx126          C  0.0827900  0.1148300  0.5574100    0.00000       Uiso       1.00
     xx127          C  0.1423400  0.1636800  0.5718600    0.00000       Uiso       1.00
     xx128          C  0.8814000  0.8251299  0.3779800    0.00000       Uiso       1.00
     xx129          C  0.9101000  0.8486600  0.3718000    0.00000       Uiso       1.00
     xx130          H  0.1506200  0.1195300  0.9247401    0.00000       Uiso       1.00
     xx131          H  0.1026200  0.0816800  0.9225600    0.00000       Uiso       1.00
     xx132          H  0.8777201  0.7991300  0.2231800    0.00000       Uiso       1.00
     xx133          H  0.9259500  0.8397800  0.2065400    0.00000       Uiso       1.00
     xx134          N  0.1716700  0.1826800  0.5850700    0.00000       Uiso       1.00
     xx135          C  0.1865400  0.2165300  0.4337500    0.00000       Uiso       1.00
     xx136          C  0.2182400  0.2328000  0.4710100    0.00000       Uiso       1.00
     xx137          C  0.2394800  0.2144800  0.6635500    0.00000       Uiso       1.00
     xx138          C  0.2297000  0.2695300  0.3069700    0.00000       Uiso       1.00
     xx139          H  0.1734200  0.2330700  0.2716000    0.00000       Uiso       1.00
     xx140          O  0.2094100  0.2894900  0.1146200    0.00000       Uiso       1.00
     xx141          C  0.2826600  0.8304000 -0.0164300    0.00000       Uiso       1.00
     xx142          H  0.2317500  0.1871200  0.7917700    0.00000       Uiso       1.00
     xx143          H  0.2632500  0.8261200 -0.1614300    0.00000       Uiso       1.00
     xx144          H  0.2779000  0.8557900  0.1491400    0.00000       Uiso       1.00
     xx145          H  0.3017600  0.8419800 -0.1478400    0.00000       Uiso       1.00
     xx146          C  0.9748901  0.9054800  0.5061800    0.00000       Uiso       1.00
     xx147          C  0.9432600  0.9175100  0.5227100    0.00000       Uiso       1.00
     xx148          C  0.9362600  0.9637500  0.5092000    0.00000       Uiso       1.00
     xx149          C  0.9845800  0.8620700  0.5058100    0.00000       Uiso       1.00
     xx150          C  0.9069201  0.9779300  0.4943600    0.00000       Uiso       1.00
     xx151          H  0.9707500  0.8328300  0.5136200    0.00000       Uiso       1.00
     xx152          H  0.8866100  0.9590400  0.4731400    0.00000       Uiso       1.00
     xx153          C  0.8656299  0.8704200  0.7657700    0.00000       Uiso       1.00
     xx154          C  0.8940400  0.8927500  0.7636100    0.00000       Uiso       1.00
     xx155          C  0.9172100  0.8851700  0.5574100    0.00000       Uiso       1.00
     xx156          C  0.8576600  0.8363200  0.5718600    0.00000       Uiso       1.00
     xx157          C  0.1186000  0.1748700  0.3779800    0.00000       Uiso       1.00
     xx158          C  0.0899000  0.1513400  0.3718000    0.00000       Uiso       1.00
     xx159          H  0.8493800  0.8804700  0.9247401    0.00000       Uiso       1.00
     xx160          H  0.8973800  0.9183200  0.9225600    0.00000       Uiso       1.00
     xx161          H  0.1222800  0.2008700  0.2231800    0.00000       Uiso       1.00
     xx162          H  0.0740500  0.1602200  0.2065400    0.00000       Uiso       1.00
     xx163          N  0.8283300  0.8173200  0.5850700    0.00000       Uiso       1.00
     xx164          C  0.8134600  0.7834700  0.4337500    0.00000       Uiso       1.00
     xx165          C  0.7817600  0.7672000  0.4710100    0.00000       Uiso       1.00
     xx166          C  0.7605200  0.7855200  0.6635500    0.00000       Uiso       1.00
     xx167          C  0.7703000  0.7304700  0.3069700    0.00000       Uiso       1.00
     xx168          H  0.8265800  0.7669300  0.2716000    0.00000       Uiso       1.00
     xx169          O  0.7905900  0.7105100  0.1146200    0.00000       Uiso       1.00
     xx170          C  0.7173400  0.1696000 -0.0164300    0.00000       Uiso       1.00
     xx171          H  0.7682500  0.8128800  0.7917700    0.00000       Uiso       1.00
     xx172          H  0.7367500  0.1738800 -0.1614300    0.00000       Uiso       1.00
     xx173          H  0.7221000  0.1442100  0.1491400    0.00000       Uiso       1.00
     xx174          H  0.6982400  0.1580200 -0.1478400    0.00000       Uiso       1.00
     xx175          C  0.9748901  0.0945200  0.4938200    0.00000       Uiso       1.00
     xx176          C  0.9432600  0.0824900  0.4772900    0.00000       Uiso       1.00
     xx177          C  0.9362600  0.0362500  0.4908000    0.00000       Uiso       1.00
     xx178          C  0.9845800  0.1379300  0.4941900    0.00000       Uiso       1.00
     xx179          C  0.9069201  0.0220700  0.5056400    0.00000       Uiso       1.00
     xx180          H  0.9707500  0.1671700  0.4863800    0.00000       Uiso       1.00
     xx181          H  0.8866100  0.0409600  0.5268600    0.00000       Uiso       1.00
     xx182          C  0.8656299  0.1295800  0.2342300    0.00000       Uiso       1.00
     xx183          C  0.8940400  0.1072500  0.2363900    0.00000       Uiso       1.00
     xx184          C  0.9172100  0.1148300  0.4425900    0.00000       Uiso       1.00
     xx185          C  0.8576600  0.1636800  0.4281400    0.00000       Uiso       1.00
     xx186          C  0.1186000  0.8251299  0.6220200    0.00000       Uiso       1.00
     xx187          C  0.0899000  0.8486600  0.6282000    0.00000       Uiso       1.00
     xx188          H  0.8493800  0.1195300  0.0752600    0.00000       Uiso       1.00
     xx189          H  0.8973800  0.0816800  0.0774400    0.00000       Uiso       1.00
     xx190          H  0.1222800  0.7991300  0.7768200    0.00000       Uiso       1.00
     xx191          H  0.0740500  0.8397800  0.7934600    0.00000       Uiso       1.00
     xx192          N  0.8283300  0.1826800  0.4149300    0.00000       Uiso       1.00
     xx193          C  0.8134600  0.2165300  0.5662500    0.00000       Uiso       1.00
     xx194          C  0.7817600  0.2328000  0.5289900    0.00000       Uiso       1.00
     xx195          C  0.7605200  0.2144800  0.3364500    0.00000       Uiso       1.00
     xx196          C  0.7703000  0.2695300  0.6930300    0.00000       Uiso       1.00
     xx197          H  0.8265800  0.2330700  0.7284000    0.00000       Uiso       1.00
     xx198          O  0.7905900  0.2894900  0.8853800    0.00000       Uiso       1.00
     xx199          C  0.7173400  0.8304000  1.0164300    0.00000       Uiso       1.00
     xx200          H  0.7682500  0.1871200  0.2082300    0.00000       Uiso       1.00
     xx201          H  0.7367500  0.8261200  1.1614300    0.00000       Uiso       1.00
     xx202          H  0.7221000  0.8557900  0.8508600    0.00000       Uiso       1.00
     xx203          H  0.6982400  0.8419800  1.1478400    0.00000       Uiso       1.00
     xx204          C  0.0251100  0.9054800  0.4938200    0.00000       Uiso       1.00
     xx205          C  0.0567400  0.9175100  0.4772900    0.00000       Uiso       1.00
     xx206          C  0.0637400  0.9637500  0.4908000    0.00000       Uiso       1.00
     xx207          C  0.0154200  0.8620700  0.4941900    0.00000       Uiso       1.00
     xx208          C  0.0930800  0.9779300  0.5056400    0.00000       Uiso       1.00
     xx209          H  0.0292500  0.8328300  0.4863800    0.00000       Uiso       1.00
     xx210          H  0.1133900  0.9590400  0.5268600    0.00000       Uiso       1.00
     xx211          C  0.1343700  0.8704200  0.2342300    0.00000       Uiso       1.00
     xx212          C  0.1059600  0.8927500  0.2363900    0.00000       Uiso       1.00
     xx213          C  0.0827900  0.8851700  0.4425900    0.00000       Uiso       1.00
     xx214          C  0.1423400  0.8363200  0.4281400    0.00000       Uiso       1.00
     xx215          C  0.8814000  0.1748700  0.6220200    0.00000       Uiso       1.00
     xx216          C  0.9101000  0.1513400  0.6282000    0.00000       Uiso       1.00
     xx217          H  0.1506200  0.8804700  0.0752600    0.00000       Uiso       1.00
     xx218          H  0.1026200  0.9183200  0.0774400    0.00000       Uiso       1.00
     xx219          H  0.8777201  0.2008700  0.7768200    0.00000       Uiso       1.00
     xx220          H  0.9259500  0.1602200  0.7934600    0.00000       Uiso       1.00
     xx221          N  0.1716700  0.8173200  0.4149300    0.00000       Uiso       1.00
     xx222          C  0.1865400  0.7834700  0.5662500    0.00000       Uiso       1.00
     xx223          C  0.2182400  0.7672000  0.5289900    0.00000       Uiso       1.00
     xx224          C  0.2394800  0.7855200  0.3364500    0.00000       Uiso       1.00
     xx225          C  0.2297000  0.7304700  0.6930300    0.00000       Uiso       1.00
     xx226          H  0.1734200  0.7669300  0.7284000    0.00000       Uiso       1.00
     xx227          O  0.2094100  0.7105100  0.8853800    0.00000       Uiso       1.00
     xx228          C  0.2826600  0.1696000  1.0164300    0.00000       Uiso       1.00
     xx229          H  0.2317500  0.8128800  0.2082300    0.00000       Uiso       1.00
     xx230          H  0.2632500  0.1738800  1.1614300    0.00000       Uiso       1.00
     xx231          H  0.2779000  0.1442100  0.8508600    0.00000       Uiso       1.00
     xx232          H  0.3017600  0.1580200  1.1478400    0.00000       Uiso       1.00
     xx233          N  0.5000000  0.5666500  0.5000000    0.00000       Uiso       1.00
     xx234          N  0.5000000  0.4333500  0.5000000    0.00000       Uiso       1.00
     xx235          N  0.0000000  0.9333500  0.5000000    0.00000       Uiso       1.00
     xx236          N  0.0000000  0.0666500  0.5000000    0.00000       Uiso       1.00
     xx237          N  0.4553300  0.5000000  0.5000000    0.00000       Uiso       1.00
     xx238          N  0.5446700  0.5000000  0.5000000    0.00000       Uiso       1.00
     xx239          N  0.0446700  0.0000000  0.5000000    0.00000       Uiso       1.00
     xx240          N  0.9553301  0.0000000  0.5000000    0.00000       Uiso       1.00
     xx241         Co  0.5000000  0.5000000  0.5000000    0.00000       Uiso       1.00
     xx242         Co  0.0000000  0.0000000  0.5000000    0.00000       Uiso       1.00
