data_COF-42-bnn
_audit_creation_date              0000-00-00
_audit_creation_method            'LanYouShi'
_symmetry_space_group_name_H-M    'P1'
_cell_length_a                    29.9768009
_cell_length_b                    29.9768009
_cell_length_c                    4.0500002
_cell_angle_alpha                 90.0000000
_cell_angle_beta                  90.0000000
_cell_angle_gamma                 120.0000000
loop_
_atom_site_label
_atom_site_type_symbol
_atom_site_fract_x
_atom_site_fract_y
_atom_site_fract_z
_atom_site_U_iso_or_equiv
_atom_site_adp_type
_atom_site_occupancy
        H1          H  0.3361000  0.3240000 -0.2182000    0.00000       Uiso       1.00
        H2          H  0.4247000  0.3472000  0.2244000    0.00000       Uiso       1.00
        H3          H  0.6760000  0.0121000 -0.2182000    0.00000       Uiso       1.00
        H4          H  0.6528000  0.0775000  0.2244000    0.00000       Uiso       1.00
        H5          H  0.9879000  0.6639000 -0.2182000    0.00000       Uiso       1.00
        H6          H  0.9225000  0.5753000  0.2244000    0.00000       Uiso       1.00
        H7          H  0.6639000  0.6760000 -0.2182000    0.00000       Uiso       1.00
        H8          H  0.5753000  0.6528000  0.2244000    0.00000       Uiso       1.00
        H9          H  0.3240000  0.9879000 -0.2182000    0.00000       Uiso       1.00
       H10          H  0.3472000  0.9225000  0.2244000    0.00000       Uiso       1.00
       H11          H  0.0121000  0.3361000 -0.2182000    0.00000       Uiso       1.00
       H12          H  0.0775000  0.4247000  0.2244000    0.00000       Uiso       1.00
       H13          H  0.6639000  0.6760000  0.2182000    0.00000       Uiso       1.00
       H14          H  0.5753000  0.6528000 -0.2244000    0.00000       Uiso       1.00
       H15          H  0.3240000  0.9879000  0.2182000    0.00000       Uiso       1.00
       H16          H  0.3472000  0.9225000 -0.2244000    0.00000       Uiso       1.00
       H17          H  0.0121000  0.3361000  0.2182000    0.00000       Uiso       1.00
       H18          H  0.0775000  0.4247000 -0.2244000    0.00000       Uiso       1.00
       H19          H  0.3361000  0.3240000  0.2182000    0.00000       Uiso       1.00
       H20          H  0.4247000  0.3472000 -0.2244000    0.00000       Uiso       1.00
       H21          H  0.6760000  0.0121000  0.2182000    0.00000       Uiso       1.00
       H22          H  0.6528000  0.0775000 -0.2244000    0.00000       Uiso       1.00
       H23          H  0.9879000  0.6639000  0.2182000    0.00000       Uiso       1.00
       H24          H  0.9225000  0.5753000 -0.2244000    0.00000       Uiso       1.00
       H25          H  0.6543000  0.7214000  0.0000000    0.00000       Uiso       1.00
       H26          H  0.5880000  0.5249000  0.0000000    0.00000       Uiso       1.00
       H27          H  0.3908000  0.5262000  0.0000000    0.00000       Uiso       1.00
       H28          H  0.2671000  0.5776000  0.0000000    0.00000       Uiso       1.00
       H29          H  0.3295000  0.5506000  0.0000000    0.00000       Uiso       1.00
       C30          C  0.3835000  0.6795000  0.0000000    0.00000       Uiso       1.00
       C31          C  0.3710000  0.7172000  0.0000000    0.00000       Uiso       1.00
       C32          C  0.4615000  0.4489000  0.0000000    0.00000       Uiso       1.00
       C33          C  0.4512000  0.4880000  0.0000000    0.00000       Uiso       1.00
       C34          C  0.4688000  0.5768000  0.0000000    0.00000       Uiso       1.00
       C35          C  0.4873000  0.5395000  0.0000000    0.00000       Uiso       1.00
       C36          C  0.3590000  0.5891000  0.0000000    0.00000       Uiso       1.00
       C37          C  0.5910000  0.6461000  0.0000000    0.00000       Uiso       1.00
       O38          O  0.5840000  0.5973000  0.0000000    0.00000       Uiso       1.00
       C39          C  0.6468000  0.6824000  0.0000000    0.00000       Uiso       1.00
       N40          N  0.4191000  0.5630000  0.0000000    0.00000       Uiso       1.00
       N41          N  0.4052000  0.5998000  0.0000000    0.00000       Uiso       1.00
       O42          O  0.4980000  0.6210000  0.0000000    0.00000       Uiso       1.00
       H43          H  0.2786000  0.9329000  0.0000000    0.00000       Uiso       1.00
       H44          H  0.4751000  0.0631000  0.0000000    0.00000       Uiso       1.00
       H45          H  0.4738000  0.8646000  0.0000000    0.00000       Uiso       1.00
       H46          H  0.4224000  0.6895000  0.0000000    0.00000       Uiso       1.00
       H47          H  0.4494000  0.7789000  0.0000000    0.00000       Uiso       1.00
       C48          C  0.3205000  0.7040000  0.0000000    0.00000       Uiso       1.00
       C49          C  0.2828000  0.6538000  0.0000000    0.00000       Uiso       1.00
       C50          C  0.5511000  0.0126000  0.0000000    0.00000       Uiso       1.00
       C51          C  0.5120000  0.9632000  0.0000000    0.00000       Uiso       1.00
       C52          C  0.4232000  0.8920000  0.0000000    0.00000       Uiso       1.00
       C53          C  0.4605000  0.9478000  0.0000000    0.00000       Uiso       1.00
       C54          C  0.4109000  0.7699000  0.0000000    0.00000       Uiso       1.00
       C55          C  0.3539000  0.9449000  0.0000000    0.00000       Uiso       1.00
       O56          O  0.4027000  0.9867000  0.0000000    0.00000       Uiso       1.00
       C57          C  0.3176000  0.9644000  0.0000000    0.00000       Uiso       1.00
       N58          N  0.4370000  0.8561000  0.0000000    0.00000       Uiso       1.00
       N59          N  0.4002000  0.8054001  0.0000000    0.00000       Uiso       1.00
       O60          O  0.3790000  0.8770000  0.0000000    0.00000       Uiso       1.00
       H61          H  0.0671000  0.3457000  0.0000000    0.00000       Uiso       1.00
       H62          H  0.9369000  0.4120000  0.0000000    0.00000       Uiso       1.00
       H63          H  0.1354000  0.6092000  0.0000000    0.00000       Uiso       1.00
       H64          H  0.3105000  0.7329000  0.0000000    0.00000       Uiso       1.00
       H65          H  0.2211000  0.6705000  0.0000000    0.00000       Uiso       1.00
       C66          C  0.2960000  0.6165000  0.0000000    0.00000       Uiso       1.00
       C67          C  0.3462000  0.6290000  0.0000000    0.00000       Uiso       1.00
       C68          C  0.9874000  0.5385000  0.0000000    0.00000       Uiso       1.00
       C69          C  0.0368000  0.5488000  0.0000000    0.00000       Uiso       1.00
       C70          C  0.1080000  0.5312000  0.0000000    0.00000       Uiso       1.00
       C71          C  0.0522000  0.5127000  0.0000000    0.00000       Uiso       1.00
       C72          C  0.2301000  0.6410000  0.0000000    0.00000       Uiso       1.00
       C73          C  0.0551000  0.4090000  0.0000000    0.00000       Uiso       1.00
       O74          O  0.0133000  0.4160000  0.0000000    0.00000       Uiso       1.00
       C75          C  0.0356000  0.3532000  0.0000000    0.00000       Uiso       1.00
       N76          N  0.1439000  0.5809000  0.0000000    0.00000       Uiso       1.00
       N77          N  0.1946000  0.5948000  0.0000000    0.00000       Uiso       1.00
       O78          O  0.1230000  0.5020000  0.0000000    0.00000       Uiso       1.00
       H79          H  0.3457000  0.2786000  0.0000000    0.00000       Uiso       1.00
       H80          H  0.4120000  0.4751000  0.0000000    0.00000       Uiso       1.00
       H81          H  0.6092000  0.4738000  0.0000000    0.00000       Uiso       1.00
       H82          H  0.7329000  0.4224000  0.0000000    0.00000       Uiso       1.00
       H83          H  0.6705000  0.4494000  0.0000000    0.00000       Uiso       1.00
       C84          C  0.6165000  0.3205000  0.0000000    0.00000       Uiso       1.00
       C85          C  0.6290000  0.2828000  0.0000000    0.00000       Uiso       1.00
       C86          C  0.5385000  0.5511000  0.0000000    0.00000       Uiso       1.00
       C87          C  0.5488000  0.5120000  0.0000000    0.00000       Uiso       1.00
       C88          C  0.5312000  0.4232000  0.0000000    0.00000       Uiso       1.00
       C89          C  0.5127000  0.4605000  0.0000000    0.00000       Uiso       1.00
       C90          C  0.6410000  0.4109000  0.0000000    0.00000       Uiso       1.00
       C91          C  0.4090000  0.3539000  0.0000000    0.00000       Uiso       1.00
       O92          O  0.4160000  0.4027000  0.0000000    0.00000       Uiso       1.00
       C93          C  0.3532000  0.3176000  0.0000000    0.00000       Uiso       1.00
       N94          N  0.5809000  0.4370000  0.0000000    0.00000       Uiso       1.00
       N95          N  0.5948000  0.4002000  0.0000000    0.00000       Uiso       1.00
       O96          O  0.5020000  0.3790000  0.0000000    0.00000       Uiso       1.00
       H97          H  0.7214000  0.0671000  0.0000000    0.00000       Uiso       1.00
       H98          H  0.5249000  0.9369000  0.0000000    0.00000       Uiso       1.00
       H99          H  0.5262000  0.1354000  0.0000000    0.00000       Uiso       1.00
      H100          H  0.5776000  0.3105000  0.0000000    0.00000       Uiso       1.00
      H101          H  0.5506000  0.2211000  0.0000000    0.00000       Uiso       1.00
      C102          C  0.6795000  0.2960000  0.0000000    0.00000       Uiso       1.00
      C103          C  0.7172000  0.3462000  0.0000000    0.00000       Uiso       1.00
      C104          C  0.4489000  0.9874000  0.0000000    0.00000       Uiso       1.00
      C105          C  0.4880000  0.0368000  0.0000000    0.00000       Uiso       1.00
      C106          C  0.5768000  0.1080000  0.0000000    0.00000       Uiso       1.00
      C107          C  0.5395000  0.0522000  0.0000000    0.00000       Uiso       1.00
      C108          C  0.5891000  0.2301000  0.0000000    0.00000       Uiso       1.00
      C109          C  0.6461000  0.0551000  0.0000000    0.00000       Uiso       1.00
      O110          O  0.5973000  0.0133000  0.0000000    0.00000       Uiso       1.00
      C111          C  0.6824000  0.0356000  0.0000000    0.00000       Uiso       1.00
      N112          N  0.5630000  0.1439000  0.0000000    0.00000       Uiso       1.00
      N113          N  0.5998000  0.1946000  0.0000000    0.00000       Uiso       1.00
      O114          O  0.6210000  0.1230000  0.0000000    0.00000       Uiso       1.00
      H115          H  0.9329000  0.6543000  0.0000000    0.00000       Uiso       1.00
      H116          H  0.0631000  0.5880000  0.0000000    0.00000       Uiso       1.00
      H117          H  0.8646000  0.3908000  0.0000000    0.00000       Uiso       1.00
      H118          H  0.6895000  0.2671000  0.0000000    0.00000       Uiso       1.00
      H119          H  0.7789000  0.3295000  0.0000000    0.00000       Uiso       1.00
      C120          C  0.7040000  0.3835000  0.0000000    0.00000       Uiso       1.00
      C121          C  0.6538000  0.3710000  0.0000000    0.00000       Uiso       1.00
      C122          C  0.0126000  0.4615000  0.0000000    0.00000       Uiso       1.00
      C123          C  0.9632000  0.4512000  0.0000000    0.00000       Uiso       1.00
      C124          C  0.8920000  0.4688000  0.0000000    0.00000       Uiso       1.00
      C125          C  0.9478000  0.4873000  0.0000000    0.00000       Uiso       1.00
      C126          C  0.7699000  0.3590000  0.0000000    0.00000       Uiso       1.00
      C127          C  0.9449000  0.5910000  0.0000000    0.00000       Uiso       1.00
      O128          O  0.9867000  0.5840000  0.0000000    0.00000       Uiso       1.00
      C129          C  0.9644000  0.6468000  0.0000000    0.00000       Uiso       1.00
      N130          N  0.8561000  0.4191000  0.0000000    0.00000       Uiso       1.00
      N131          N  0.8054001  0.4052000  0.0000000    0.00000       Uiso       1.00
      O132          O  0.8770000  0.4980000  0.0000000    0.00000       Uiso       1.00
