data_COF-43-gra
_audit_creation_date              0000-00-00
_audit_creation_method            'LanYouShi'
_symmetry_space_group_name_H-M    'P1'
_cell_length_a                    45.3408012
_cell_length_b                    45.3408012
_cell_length_c                    6.4554000
_cell_angle_alpha                 90.0000000
_cell_angle_beta                  90.0000000
_cell_angle_gamma                 120.0000000
loop_
_atom_site_label
_atom_site_type_symbol
_atom_site_fract_x
_atom_site_fract_y
_atom_site_fract_z
_atom_site_U_iso_or_equiv
_atom_site_adp_type
_atom_site_occupancy
        H1          H  0.2470000  0.3290000  0.3968000    0.00000       Uiso       1.00
        H2          H  0.2365000  0.2703000  0.1056000    0.00000       Uiso       1.00
        H3          H  0.6633000  0.7492000  0.3968000    0.00000       Uiso       1.00
        H4          H  0.6048000  0.7010000  0.3946000    0.00000       Uiso       1.00
        H5          H  0.6710000  0.9179999  0.3968000    0.00000       Uiso       1.00
        H6          H  0.7297000  0.9662001  0.1056000    0.00000       Uiso       1.00
        H7          H  0.2508000  0.9141000  0.3968000    0.00000       Uiso       1.00
        H8          H  0.2990000  0.9038000  0.3946000    0.00000       Uiso       1.00
        H9          H  0.0820000  0.7530000  0.3968000    0.00000       Uiso       1.00
       H10          H  0.0338000  0.7635000  0.1056000    0.00000       Uiso       1.00
       H11          H  0.0859000  0.3367000  0.3968000    0.00000       Uiso       1.00
       H12          H  0.0962000  0.3952000  0.3946000    0.00000       Uiso       1.00
       H13          H  0.7530000  0.6710000  0.8968000    0.00000       Uiso       1.00
       H14          H  0.7635000  0.7297000  0.6056000    0.00000       Uiso       1.00
       H15          H  0.3367000  0.2508000  0.8968000    0.00000       Uiso       1.00
       H16          H  0.3952000  0.2990000  0.8946000    0.00000       Uiso       1.00
       H17          H  0.3290000  0.0820000  0.8968000    0.00000       Uiso       1.00
       H18          H  0.2703000  0.0338000  0.6056000    0.00000       Uiso       1.00
       H19          H  0.7492000  0.0859000  0.8968000    0.00000       Uiso       1.00
       H20          H  0.7010000  0.0962000  0.8946000    0.00000       Uiso       1.00
       H21          H  0.9180000  0.2470000  0.8968000    0.00000       Uiso       1.00
       H22          H  0.9662000  0.2365000  0.6056000    0.00000       Uiso       1.00
       H23          H  0.9141000  0.6633000  0.8968000    0.00000       Uiso       1.00
       H24          H  0.9038000  0.6048000  0.8946000    0.00000       Uiso       1.00
       H25          H  0.7530000  0.6710000  0.6032000    0.00000       Uiso       1.00
       H26          H  0.7635000  0.7297000  0.8944000    0.00000       Uiso       1.00
       H27          H  0.3367000  0.2508000  0.6032000    0.00000       Uiso       1.00
       H28          H  0.3952000  0.2990000  0.6054000    0.00000       Uiso       1.00
       H29          H  0.3290000  0.0820000  0.6032000    0.00000       Uiso       1.00
       H30          H  0.2703000  0.0338000  0.8944000    0.00000       Uiso       1.00
       H31          H  0.7492000  0.0859000  0.6032000    0.00000       Uiso       1.00
       H32          H  0.7010000  0.0962000  0.6054000    0.00000       Uiso       1.00
       H33          H  0.9180000  0.2470000  0.6032000    0.00000       Uiso       1.00
       H34          H  0.9662000  0.2365000  0.8944000    0.00000       Uiso       1.00
       H35          H  0.9141000  0.6633000  0.6032000    0.00000       Uiso       1.00
       H36          H  0.9038000  0.6048000  0.6054000    0.00000       Uiso       1.00
       H37          H  0.2470000  0.3290000  0.1032000    0.00000       Uiso       1.00
       H38          H  0.2365000  0.2703000  0.3944000    0.00000       Uiso       1.00
       H39          H  0.6633000  0.7492000  0.1032000    0.00000       Uiso       1.00
       H40          H  0.6048000  0.7010000  0.1054000    0.00000       Uiso       1.00
       H41          H  0.6710000  0.9179999  0.1032000    0.00000       Uiso       1.00
       H42          H  0.7297000  0.9662001  0.3944000    0.00000       Uiso       1.00
       H43          H  0.2508000  0.9141000  0.1032000    0.00000       Uiso       1.00
       H44          H  0.2990000  0.9038000  0.1054000    0.00000       Uiso       1.00
       H45          H  0.0820000  0.7530000  0.1032000    0.00000       Uiso       1.00
       H46          H  0.0338000  0.7635000  0.3944000    0.00000       Uiso       1.00
       H47          H  0.0859000  0.3367000  0.1032000    0.00000       Uiso       1.00
       H48          H  0.0962000  0.3952000  0.1054000    0.00000       Uiso       1.00
       H49          H  0.5971000  0.3604000  0.7500000    0.00000       Uiso       1.00
       H50          H  0.5382000  0.3408000  0.7500000    0.00000       Uiso       1.00
       H51          H  0.6470000  0.3749000  0.7500000    0.00000       Uiso       1.00
       H52          H  0.5163000  0.2382000  0.7500000    0.00000       Uiso       1.00
       H53          H  0.5749000  0.2563000  0.7500000    0.00000       Uiso       1.00
       H54          H  0.3028000  0.1981000  0.7500000    0.00000       Uiso       1.00
       H55          H  0.3629000  0.1347000  0.7500000    0.00000       Uiso       1.00
       H56          H  0.1498000  0.0949000  0.7500000    0.00000       Uiso       1.00
       H57          H  0.0915000  0.0773000  0.7500000    0.00000       Uiso       1.00
       H58          H  0.0189000  0.9588000  0.7500000    0.00000       Uiso       1.00
       H59          H  0.4787000  0.2956000  0.7500000    0.00000       Uiso       1.00
       O60          O  0.3696000  0.2377000  0.7500000    0.00000       Uiso       1.00
       O61          O  0.2961000  0.0952000  0.7500000    0.00000       Uiso       1.00
       O62          O  0.7625000  0.5818000  0.7500000    0.00000       Uiso       1.00
       O63          O  0.9047000  0.7525000  0.7500000    0.00000       Uiso       1.00
       N64          N  0.7810000  0.5358000  0.7500000    0.00000       Uiso       1.00
       N65          N  0.8041000  0.5705000  0.7500000    0.00000       Uiso       1.00
       N66          N  0.8630000  0.7638000  0.7500000    0.00000       Uiso       1.00
       N67          N  0.8862000  0.7985000  0.7500000    0.00000       Uiso       1.00
       C68          C  0.7904000  0.5134000  0.7500000    0.00000       Uiso       1.00
       C69          C  0.7929000  0.5932000  0.7500000    0.00000       Uiso       1.00
       C70          C  0.8152000  0.6311000  0.7500000    0.00000       Uiso       1.00
       C71          C  0.8508000  0.6485000  0.7500000    0.00000       Uiso       1.00
       C72          C  0.8683000  0.6840000  0.7500000    0.00000       Uiso       1.00
       C73          C  0.8520000  0.7032000  0.7500000    0.00000       Uiso       1.00
       C74          C  0.7989000  0.6503000  0.7500000    0.00000       Uiso       1.00
       C75          C  0.8164000  0.6858000  0.7500000    0.00000       Uiso       1.00
       C76          C  0.8743000  0.7411000  0.7500000    0.00000       Uiso       1.00
       C77          C  0.8769000  0.8209000  0.7500000    0.00000       Uiso       1.00
       C78          C  0.0727000  0.0228000  0.7500000    0.00000       Uiso       1.00
       C79          C  0.0848000  0.9997000  0.7500000    0.00000       Uiso       1.00
       C80          C  0.1191000  0.0107000  0.7500000    0.00000       Uiso       1.00
       C81          C  0.1429000  0.0449000  0.7500000    0.00000       Uiso       1.00
       C82          C  0.1317000  0.0682000  0.7500000    0.00000       Uiso       1.00
       C83          C  0.0974000  0.0575000  0.7500000    0.00000       Uiso       1.00
       C84          C  0.7350000  0.2692000  0.7500000    0.00000       Uiso       1.00
       C85          C  0.6894000  0.2825000  0.7500000    0.00000       Uiso       1.00
       C86          C  0.7119000  0.2347000  0.7500000    0.00000       Uiso       1.00
       C87          C  0.6776000  0.2240000  0.7500000    0.00000       Uiso       1.00
       C88          C  0.7241000  0.2927000  0.7500000    0.00000       Uiso       1.00
       C89          C  0.6665000  0.2474000  0.7500000    0.00000       Uiso       1.00
       H90          H  0.6396000  0.2367000  0.7500000    0.00000       Uiso       1.00
       H91          H  0.6592000  0.1974000  0.7500000    0.00000       Uiso       1.00
       H92          H  0.6251000  0.2721000  0.7500000    0.00000       Uiso       1.00
       H93          H  0.7618000  0.2781000  0.7500000    0.00000       Uiso       1.00
       H94          H  0.7437000  0.3186000  0.7500000    0.00000       Uiso       1.00
       H95          H  0.8019000  0.1047000  0.7500000    0.00000       Uiso       1.00
       H96          H  0.8653000  0.2282000  0.7500000    0.00000       Uiso       1.00
       H97          H  0.9051000  0.0549000  0.7500000    0.00000       Uiso       1.00
       H98          H  0.9227000  0.0142000  0.7500000    0.00000       Uiso       1.00
       H99          H  0.0412000  0.0601000  0.7500000    0.00000       Uiso       1.00
      H100          H  0.7044000  0.1831000  0.7500000    0.00000       Uiso       1.00
      O101          O  0.7623000  0.1319000  0.7500000    0.00000       Uiso       1.00
      O102          O  0.9047999  0.2009000  0.7500000    0.00000       Uiso       1.00
      O103          O  0.4182000  0.1807000  0.7500000    0.00000       Uiso       1.00
      O104          O  0.2475000  0.1522000  0.7500000    0.00000       Uiso       1.00
      N105          N  0.4642000  0.2452000  0.7500000    0.00000       Uiso       1.00
      N106          N  0.4295000  0.2336000  0.7500000    0.00000       Uiso       1.00
      N107          N  0.2362000  0.0992000  0.7500000    0.00000       Uiso       1.00
      N108          N  0.2015000  0.0877000  0.7500000    0.00000       Uiso       1.00
      C109          C  0.4866000  0.2770000  0.7500000    0.00000       Uiso       1.00
      C110          C  0.4068000  0.1997000  0.7500000    0.00000       Uiso       1.00
      C111          C  0.3689000  0.1841000  0.7500000    0.00000       Uiso       1.00
      C112          C  0.3515000  0.2023000  0.7500000    0.00000       Uiso       1.00
      C113          C  0.3160000  0.1843000  0.7500000    0.00000       Uiso       1.00
      C114          C  0.2968000  0.1488000  0.7500000    0.00000       Uiso       1.00
      C115          C  0.3497000  0.1486000  0.7500000    0.00000       Uiso       1.00
      C116          C  0.3142000  0.1306000  0.7500000    0.00000       Uiso       1.00
      C117          C  0.2589000  0.1332000  0.7500000    0.00000       Uiso       1.00
      C118          C  0.1791000  0.0560000  0.7500000    0.00000       Uiso       1.00
      C119          C  0.9772000  0.0499000  0.7500000    0.00000       Uiso       1.00
      C120          C  0.0003000  0.0851000  0.7500000    0.00000       Uiso       1.00
      C121          C  0.9893000  0.1084000  0.7500000    0.00000       Uiso       1.00
      C122          C  0.9551001  0.0980000  0.7500000    0.00000       Uiso       1.00
      C123          C  0.9317999  0.0635000  0.7500000    0.00000       Uiso       1.00
      C124          C  0.9425000  0.0399000  0.7500000    0.00000       Uiso       1.00
      C125          C  0.7308000  0.4658000  0.7500000    0.00000       Uiso       1.00
      C126          C  0.7175000  0.4069000  0.7500000    0.00000       Uiso       1.00
      C127          C  0.7653000  0.4772000  0.7500000    0.00000       Uiso       1.00
      C128          C  0.7760000  0.4536000  0.7500000    0.00000       Uiso       1.00
      C129          C  0.7073000  0.4314000  0.7500000    0.00000       Uiso       1.00
      C130          C  0.7526000  0.4191000  0.7500000    0.00000       Uiso       1.00
      H131          H  0.7633000  0.4029000  0.7500000    0.00000       Uiso       1.00
      H132          H  0.8026000  0.4618000  0.7500000    0.00000       Uiso       1.00
      H133          H  0.7279000  0.3530000  0.7500000    0.00000       Uiso       1.00
      H134          H  0.7219000  0.4837000  0.7500000    0.00000       Uiso       1.00
      H135          H  0.6814000  0.4251000  0.7500000    0.00000       Uiso       1.00
      H136          H  0.8953000  0.6972000  0.7500000    0.00000       Uiso       1.00
      H137          H  0.7718000  0.6371000  0.7500000    0.00000       Uiso       1.00
      H138          H  0.9451000  0.8502001  0.7500000    0.00000       Uiso       1.00
      H139          H  0.9858000  0.9085000  0.7500000    0.00000       Uiso       1.00
      H140          H  0.9399000  0.9811000  0.7500000    0.00000       Uiso       1.00
      H141          H  0.8169000  0.5213000  0.7500000    0.00000       Uiso       1.00
      O142          O  0.8681000  0.6304000  0.7500000    0.00000       Uiso       1.00
      O143          O  0.7991000  0.7039000  0.7500000    0.00000       Uiso       1.00
      O144          O  0.8193000  0.2375000  0.7500000    0.00000       Uiso       1.00
      O145          O  0.8478000  0.0953000  0.7500000    0.00000       Uiso       1.00
      N146          N  0.7548000  0.2190000  0.7500000    0.00000       Uiso       1.00
      N147          N  0.7664000  0.1959000  0.7500000    0.00000       Uiso       1.00
      N148          N  0.9008000  0.1370000  0.7500000    0.00000       Uiso       1.00
      N149          N  0.9122999  0.1138000  0.7500000    0.00000       Uiso       1.00
      C150          C  0.7230000  0.2096000  0.7500000    0.00000       Uiso       1.00
      C151          C  0.8003000  0.2071000  0.7500000    0.00000       Uiso       1.00
      C152          C  0.8159000  0.1848000  0.7500000    0.00000       Uiso       1.00
      C153          C  0.7977000  0.1492000  0.7500000    0.00000       Uiso       1.00
      C154          C  0.8157000  0.1317000  0.7500000    0.00000       Uiso       1.00
      C155          C  0.8512000  0.1480000  0.7500000    0.00000       Uiso       1.00
      C156          C  0.8514000  0.2011000  0.7500000    0.00000       Uiso       1.00
      C157          C  0.8694000  0.1836000  0.7500000    0.00000       Uiso       1.00
      C158          C  0.8668000  0.1257000  0.7500000    0.00000       Uiso       1.00
      C159          C  0.9440000  0.1231000  0.7500000    0.00000       Uiso       1.00
      C160          C  0.9501000  0.9273000  0.7500000    0.00000       Uiso       1.00
      C161          C  0.9149000  0.9152000  0.7500000    0.00000       Uiso       1.00
      C162          C  0.8916000  0.8809000  0.7500000    0.00000       Uiso       1.00
      C163          C  0.9020000  0.8571000  0.7500000    0.00000       Uiso       1.00
      C164          C  0.9365000  0.8683000  0.7500000    0.00000       Uiso       1.00
      C165          C  0.9601000  0.9026000  0.7500000    0.00000       Uiso       1.00
      C166          C  0.5342000  0.2650000  0.7500000    0.00000       Uiso       1.00
      C167          C  0.5931000  0.3106000  0.7500000    0.00000       Uiso       1.00
      C168          C  0.5228000  0.2881000  0.7500000    0.00000       Uiso       1.00
      C169          C  0.5464000  0.3224000  0.7500000    0.00000       Uiso       1.00
      C170          C  0.5686000  0.2759000  0.7500000    0.00000       Uiso       1.00
      C171          C  0.5809000  0.3335000  0.7500000    0.00000       Uiso       1.00
      H172          H  0.4029000  0.6396000  0.2500000    0.00000       Uiso       1.00
      H173          H  0.4618000  0.6592000  0.2500000    0.00000       Uiso       1.00
      H174          H  0.3530000  0.6251000  0.2500000    0.00000       Uiso       1.00
      H175          H  0.4837000  0.7618000  0.2500000    0.00000       Uiso       1.00
      H176          H  0.4251000  0.7437000  0.2500000    0.00000       Uiso       1.00
      H177          H  0.6972000  0.8019000  0.2500000    0.00000       Uiso       1.00
      H178          H  0.6371000  0.8652999  0.2500000    0.00000       Uiso       1.00
      H179          H  0.8502000  0.9050999  0.2500000    0.00000       Uiso       1.00
      H180          H  0.9085000  0.9227000  0.2500000    0.00000       Uiso       1.00
      H181          H  0.9811000  0.0412000  0.2500000    0.00000       Uiso       1.00
      H182          H  0.5213000  0.7044000  0.2500000    0.00000       Uiso       1.00
      O183          O  0.6304000  0.7623000  0.2500000    0.00000       Uiso       1.00
      O184          O  0.7039000  0.9047999  0.2500000    0.00000       Uiso       1.00
      O185          O  0.2375000  0.4182000  0.2500000    0.00000       Uiso       1.00
      O186          O  0.0953000  0.2475000  0.2500000    0.00000       Uiso       1.00
      N187          N  0.2190000  0.4642000  0.2500000    0.00000       Uiso       1.00
      N188          N  0.1959000  0.4295000  0.2500000    0.00000       Uiso       1.00
      N189          N  0.1370000  0.2362000  0.2500000    0.00000       Uiso       1.00
      N190          N  0.1138000  0.2015000  0.2500000    0.00000       Uiso       1.00
      C191          C  0.2096000  0.4866000  0.2500000    0.00000       Uiso       1.00
      C192          C  0.2071000  0.4068000  0.2500000    0.00000       Uiso       1.00
      C193          C  0.1848000  0.3689000  0.2500000    0.00000       Uiso       1.00
      C194          C  0.1492000  0.3515000  0.2500000    0.00000       Uiso       1.00
      C195          C  0.1317000  0.3160000  0.2500000    0.00000       Uiso       1.00
      C196          C  0.1480000  0.2968000  0.2500000    0.00000       Uiso       1.00
      C197          C  0.2011000  0.3497000  0.2500000    0.00000       Uiso       1.00
      C198          C  0.1836000  0.3142000  0.2500000    0.00000       Uiso       1.00
      C199          C  0.1257000  0.2589000  0.2500000    0.00000       Uiso       1.00
      C200          C  0.1231000  0.1791000  0.2500000    0.00000       Uiso       1.00
      C201          C  0.9273000  0.9772000  0.2500000    0.00000       Uiso       1.00
      C202          C  0.9152001  0.0003000  0.2500000    0.00000       Uiso       1.00
      C203          C  0.8809000  0.9893000  0.2500000    0.00000       Uiso       1.00
      C204          C  0.8571000  0.9551001  0.2500000    0.00000       Uiso       1.00
      C205          C  0.8683000  0.9318000  0.2500000    0.00000       Uiso       1.00
      C206          C  0.9026000  0.9424999  0.2500000    0.00000       Uiso       1.00
      C207          C  0.2650000  0.7308000  0.2500000    0.00000       Uiso       1.00
      C208          C  0.3106000  0.7175000  0.2500000    0.00000       Uiso       1.00
      C209          C  0.2881000  0.7653000  0.2500000    0.00000       Uiso       1.00
      C210          C  0.3224000  0.7760000  0.2500000    0.00000       Uiso       1.00
      C211          C  0.2759000  0.7073000  0.2500000    0.00000       Uiso       1.00
      C212          C  0.3335000  0.7526000  0.2500000    0.00000       Uiso       1.00
      H213          H  0.3604000  0.7633000  0.2500000    0.00000       Uiso       1.00
      H214          H  0.3408000  0.8026000  0.2500000    0.00000       Uiso       1.00
      H215          H  0.3749000  0.7279000  0.2500000    0.00000       Uiso       1.00
      H216          H  0.2382000  0.7219000  0.2500000    0.00000       Uiso       1.00
      H217          H  0.2563000  0.6814000  0.2500000    0.00000       Uiso       1.00
      H218          H  0.1981000  0.8953000  0.2500000    0.00000       Uiso       1.00
      H219          H  0.1347000  0.7718000  0.2500000    0.00000       Uiso       1.00
      H220          H  0.0949000  0.9450999  0.2500000    0.00000       Uiso       1.00
      H221          H  0.0773000  0.9858000  0.2500000    0.00000       Uiso       1.00
      H222          H  0.9588000  0.9398999  0.2500000    0.00000       Uiso       1.00
      H223          H  0.2956000  0.8169000  0.2500000    0.00000       Uiso       1.00
      O224          O  0.2377000  0.8681000  0.2500000    0.00000       Uiso       1.00
      O225          O  0.0952000  0.7991000  0.2500000    0.00000       Uiso       1.00
      O226          O  0.5818000  0.8193000  0.2500000    0.00000       Uiso       1.00
      O227          O  0.7525000  0.8478001  0.2500000    0.00000       Uiso       1.00
      N228          N  0.5358000  0.7548000  0.2500000    0.00000       Uiso       1.00
      N229          N  0.5705000  0.7664000  0.2500000    0.00000       Uiso       1.00
      N230          N  0.7638000  0.9008000  0.2500000    0.00000       Uiso       1.00
      N231          N  0.7985000  0.9123000  0.2500000    0.00000       Uiso       1.00
      C232          C  0.5134000  0.7230000  0.2500000    0.00000       Uiso       1.00
      C233          C  0.5932000  0.8003000  0.2500000    0.00000       Uiso       1.00
      C234          C  0.6311000  0.8159001  0.2500000    0.00000       Uiso       1.00
      C235          C  0.6485000  0.7977000  0.2500000    0.00000       Uiso       1.00
      C236          C  0.6840000  0.8157001  0.2500000    0.00000       Uiso       1.00
      C237          C  0.7032000  0.8512000  0.2500000    0.00000       Uiso       1.00
      C238          C  0.6503000  0.8514000  0.2500000    0.00000       Uiso       1.00
      C239          C  0.6858000  0.8694001  0.2500000    0.00000       Uiso       1.00
      C240          C  0.7411000  0.8668001  0.2500000    0.00000       Uiso       1.00
      C241          C  0.8209000  0.9440001  0.2500000    0.00000       Uiso       1.00
      C242          C  0.0228000  0.9501001  0.2500000    0.00000       Uiso       1.00
      C243          C  0.9997000  0.9149000  0.2500000    0.00000       Uiso       1.00
      C244          C  0.0107000  0.8916000  0.2500000    0.00000       Uiso       1.00
      C245          C  0.0449000  0.9020000  0.2500000    0.00000       Uiso       1.00
      C246          C  0.0682000  0.9365000  0.2500000    0.00000       Uiso       1.00
      C247          C  0.0575000  0.9601001  0.2500000    0.00000       Uiso       1.00
      C248          C  0.2692000  0.5342000  0.2500000    0.00000       Uiso       1.00
      C249          C  0.2825000  0.5931000  0.2500000    0.00000       Uiso       1.00
      C250          C  0.2347000  0.5228000  0.2500000    0.00000       Uiso       1.00
      C251          C  0.2240000  0.5464000  0.2500000    0.00000       Uiso       1.00
      C252          C  0.2927000  0.5686000  0.2500000    0.00000       Uiso       1.00
      C253          C  0.2474000  0.5809000  0.2500000    0.00000       Uiso       1.00
      H254          H  0.2367000  0.5971000  0.2500000    0.00000       Uiso       1.00
      H255          H  0.1974000  0.5382000  0.2500000    0.00000       Uiso       1.00
      H256          H  0.2721000  0.6470000  0.2500000    0.00000       Uiso       1.00
      H257          H  0.2781000  0.5163000  0.2500000    0.00000       Uiso       1.00
      H258          H  0.3186000  0.5749000  0.2500000    0.00000       Uiso       1.00
      H259          H  0.1047000  0.3028000  0.2500000    0.00000       Uiso       1.00
      H260          H  0.2282000  0.3629000  0.2500000    0.00000       Uiso       1.00
      H261          H  0.0549000  0.1498000  0.2500000    0.00000       Uiso       1.00
      H262          H  0.0142000  0.0915000  0.2500000    0.00000       Uiso       1.00
      H263          H  0.0601000  0.0189000  0.2500000    0.00000       Uiso       1.00
      H264          H  0.1831000  0.4787000  0.2500000    0.00000       Uiso       1.00
      O265          O  0.1319000  0.3696000  0.2500000    0.00000       Uiso       1.00
      O266          O  0.2009000  0.2961000  0.2500000    0.00000       Uiso       1.00
      O267          O  0.1807000  0.7625000  0.2500000    0.00000       Uiso       1.00
      O268          O  0.1522000  0.9047000  0.2500000    0.00000       Uiso       1.00
      N269          N  0.2452000  0.7810000  0.2500000    0.00000       Uiso       1.00
      N270          N  0.2336000  0.8041000  0.2500000    0.00000       Uiso       1.00
      N271          N  0.0992000  0.8630000  0.2500000    0.00000       Uiso       1.00
      N272          N  0.0877000  0.8862000  0.2500000    0.00000       Uiso       1.00
      C273          C  0.2770000  0.7904000  0.2500000    0.00000       Uiso       1.00
      C274          C  0.1997000  0.7929000  0.2500000    0.00000       Uiso       1.00
      C275          C  0.1841000  0.8152000  0.2500000    0.00000       Uiso       1.00
      C276          C  0.2023000  0.8508000  0.2500000    0.00000       Uiso       1.00
      C277          C  0.1843000  0.8683000  0.2500000    0.00000       Uiso       1.00
      C278          C  0.1488000  0.8520000  0.2500000    0.00000       Uiso       1.00
      C279          C  0.1486000  0.7989000  0.2500000    0.00000       Uiso       1.00
      C280          C  0.1306000  0.8164000  0.2500000    0.00000       Uiso       1.00
      C281          C  0.1332000  0.8743000  0.2500000    0.00000       Uiso       1.00
      C282          C  0.0560000  0.8769000  0.2500000    0.00000       Uiso       1.00
      C283          C  0.0499000  0.0727000  0.2500000    0.00000       Uiso       1.00
      C284          C  0.0851000  0.0848000  0.2500000    0.00000       Uiso       1.00
      C285          C  0.1084000  0.1191000  0.2500000    0.00000       Uiso       1.00
      C286          C  0.0980000  0.1429000  0.2500000    0.00000       Uiso       1.00
      C287          C  0.0635000  0.1317000  0.2500000    0.00000       Uiso       1.00
      C288          C  0.0399000  0.0974000  0.2500000    0.00000       Uiso       1.00
      C289          C  0.4658000  0.7350000  0.2500000    0.00000       Uiso       1.00
      C290          C  0.4069000  0.6894000  0.2500000    0.00000       Uiso       1.00
      C291          C  0.4772000  0.7119000  0.2500000    0.00000       Uiso       1.00
      C292          C  0.4536000  0.6776000  0.2500000    0.00000       Uiso       1.00
      C293          C  0.4314000  0.7241000  0.2500000    0.00000       Uiso       1.00
      C294          C  0.4191000  0.6665000  0.2500000    0.00000       Uiso       1.00
      H295          H  0.0956000  0.0685000  0.2500000    0.00000       Uiso       1.00
      H296          H  0.1351000  0.1272000  0.2500000    0.00000       Uiso       1.00
      H297          H  0.1623000  0.2439000  0.2500000    0.00000       Uiso       1.00
      H298          H  0.1705000  0.4218000  0.2500000    0.00000       Uiso       1.00
      H299          H  0.2747000  0.2983000  0.2500000    0.00000       Uiso       1.00
      H300          H  0.6328000  0.6908000  0.2500000    0.00000       Uiso       1.00
      H301          H  0.1497000  0.1869000  0.2500000    0.00000       Uiso       1.00
      C302          C  0.0342000  0.0107000  0.2500000    0.00000       Uiso       1.00
      C303          C  0.0241000  0.0352000  0.2500000    0.00000       Uiso       1.00
      C304          C  0.3450000  0.6431000  0.2500000    0.00000       Uiso       1.00
      C305          C  0.3693000  0.6775000  0.2500000    0.00000       Uiso       1.00
      C306          C  0.2469000  0.2864000  0.2500000    0.00000       Uiso       1.00
      C307          C  0.2367000  0.3131000  0.2500000    0.00000       Uiso       1.00
      C308          C  0.6209000  0.7067000  0.2500000    0.00000       Uiso       1.00
      C309          C  0.6475000  0.7436000  0.2500000    0.00000       Uiso       1.00
      H310          H  0.9315000  0.0271000  0.2500000    0.00000       Uiso       1.00
      H311          H  0.8728000  0.0079000  0.2500000    0.00000       Uiso       1.00
      H312          H  0.7561000  0.9184000  0.2500000    0.00000       Uiso       1.00
      H313          H  0.5782000  0.7487000  0.2500000    0.00000       Uiso       1.00
      H314          H  0.7017000  0.9764001  0.2500000    0.00000       Uiso       1.00
      H315          H  0.3092000  0.9419999  0.2500000    0.00000       Uiso       1.00
      H316          H  0.8131000  0.9628000  0.2500000    0.00000       Uiso       1.00
      C317          C  0.9893001  0.0235000  0.2500000    0.00000       Uiso       1.00
      C318          C  0.9648000  0.9889000  0.2500000    0.00000       Uiso       1.00
      C319          C  0.3569000  0.7019000  0.2500000    0.00000       Uiso       1.00
      C320          C  0.3225000  0.6918000  0.2500000    0.00000       Uiso       1.00
      C321          C  0.7136000  0.9605000  0.2500000    0.00000       Uiso       1.00
      C322          C  0.6869000  0.9236000  0.2500000    0.00000       Uiso       1.00
      C323          C  0.2933000  0.9142000  0.2500000    0.00000       Uiso       1.00
      C324          C  0.2564000  0.9039000  0.2500000    0.00000       Uiso       1.00
      H325          H  0.9729000  0.9044000  0.2500000    0.00000       Uiso       1.00
      H326          H  0.9921000  0.8649000  0.2500000    0.00000       Uiso       1.00
      H327          H  0.0816000  0.8377000  0.2500000    0.00000       Uiso       1.00
      H328          H  0.2513000  0.8295000  0.2500000    0.00000       Uiso       1.00
      H329          H  0.0236000  0.7253000  0.2500000    0.00000       Uiso       1.00
      H330          H  0.0580000  0.3672000  0.2500000    0.00000       Uiso       1.00
      H331          H  0.0372000  0.8503000  0.2500000    0.00000       Uiso       1.00
      C332          C  0.9765000  0.9658000  0.2500000    0.00000       Uiso       1.00
      C333          C  0.0111000  0.9759001  0.2500000    0.00000       Uiso       1.00
      C334          C  0.2981000  0.6550000  0.2500000    0.00000       Uiso       1.00
      C335          C  0.3082000  0.6307000  0.2500000    0.00000       Uiso       1.00
      C336          C  0.0395000  0.7531000  0.2500000    0.00000       Uiso       1.00
      C337          C  0.0764000  0.7633000  0.2500000    0.00000       Uiso       1.00
      C338          C  0.0858000  0.3791000  0.2500000    0.00000       Uiso       1.00
      C339          C  0.0961000  0.3525000  0.2500000    0.00000       Uiso       1.00
      H340          H  0.9044000  0.9315000  0.7500000    0.00000       Uiso       1.00
      H341          H  0.8649000  0.8728000  0.7500000    0.00000       Uiso       1.00
      H342          H  0.8377000  0.7561000  0.7500000    0.00000       Uiso       1.00
      H343          H  0.8295000  0.5782000  0.7500000    0.00000       Uiso       1.00
      H344          H  0.7253000  0.7017000  0.7500000    0.00000       Uiso       1.00
      H345          H  0.3672000  0.3092000  0.7500000    0.00000       Uiso       1.00
      H346          H  0.8503000  0.8131000  0.7500000    0.00000       Uiso       1.00
      C347          C  0.9658000  0.9893000  0.7500000    0.00000       Uiso       1.00
      C348          C  0.9759000  0.9648000  0.7500000    0.00000       Uiso       1.00
      C349          C  0.6550000  0.3569000  0.7500000    0.00000       Uiso       1.00
      C350          C  0.6307000  0.3225000  0.7500000    0.00000       Uiso       1.00
      C351          C  0.7531000  0.7136000  0.7500000    0.00000       Uiso       1.00
      C352          C  0.7633000  0.6869000  0.7500000    0.00000       Uiso       1.00
      C353          C  0.3791000  0.2933000  0.7500000    0.00000       Uiso       1.00
      C354          C  0.3525000  0.2564000  0.7500000    0.00000       Uiso       1.00
      H355          H  0.0685000  0.9729000  0.7500000    0.00000       Uiso       1.00
      H356          H  0.1272000  0.9921000  0.7500000    0.00000       Uiso       1.00
      H357          H  0.2439000  0.0816000  0.7500000    0.00000       Uiso       1.00
      H358          H  0.4218000  0.2513000  0.7500000    0.00000       Uiso       1.00
      H359          H  0.2983000  0.0236000  0.7500000    0.00000       Uiso       1.00
      H360          H  0.6908000  0.0580000  0.7500000    0.00000       Uiso       1.00
      H361          H  0.1869000  0.0372000  0.7500000    0.00000       Uiso       1.00
      C362          C  0.0107000  0.9765000  0.7500000    0.00000       Uiso       1.00
      C363          C  0.0352000  0.0111000  0.7500000    0.00000       Uiso       1.00
      C364          C  0.6431000  0.2981000  0.7500000    0.00000       Uiso       1.00
      C365          C  0.6775000  0.3082000  0.7500000    0.00000       Uiso       1.00
      C366          C  0.2864000  0.0395000  0.7500000    0.00000       Uiso       1.00
      C367          C  0.3131000  0.0764000  0.7500000    0.00000       Uiso       1.00
      C368          C  0.7067000  0.0858000  0.7500000    0.00000       Uiso       1.00
      C369          C  0.7436000  0.0961000  0.7500000    0.00000       Uiso       1.00
      H370          H  0.0271000  0.0956000  0.7500000    0.00000       Uiso       1.00
      H371          H  0.0079000  0.1351000  0.7500000    0.00000       Uiso       1.00
      H372          H  0.9184000  0.1623000  0.7500000    0.00000       Uiso       1.00
      H373          H  0.7487000  0.1705000  0.7500000    0.00000       Uiso       1.00
      H374          H  0.9764000  0.2747000  0.7500000    0.00000       Uiso       1.00
      H375          H  0.9420000  0.6328000  0.7500000    0.00000       Uiso       1.00
      H376          H  0.9628000  0.1497000  0.7500000    0.00000       Uiso       1.00
      C377          C  0.0235000  0.0342000  0.7500000    0.00000       Uiso       1.00
      C378          C  0.9888999  0.0241000  0.7500000    0.00000       Uiso       1.00
      C379          C  0.7019000  0.3450000  0.7500000    0.00000       Uiso       1.00
      C380          C  0.6918000  0.3693000  0.7500000    0.00000       Uiso       1.00
      C381          C  0.9605000  0.2469000  0.7500000    0.00000       Uiso       1.00
      C382          C  0.9236000  0.2367000  0.7500000    0.00000       Uiso       1.00
      C383          C  0.9142000  0.6209000  0.7500000    0.00000       Uiso       1.00
      C384          C  0.9039000  0.6475000  0.7500000    0.00000       Uiso       1.00
