data_COF-66
_audit_creation_date              0000-00-00
_audit_creation_method            'LanYouShi'
_symmetry_space_group_name_H-M    'P1'
_cell_length_a                    42.8182983
_cell_length_b                    42.1055984
_cell_length_c                    7.3926001
_cell_angle_alpha                 90.0000000
_cell_angle_beta                  90.0000000
_cell_angle_gamma                 90.0000000
loop_
_atom_site_label
_atom_site_type_symbol
_atom_site_fract_x
_atom_site_fract_y
_atom_site_fract_z
_atom_site_U_iso_or_equiv
_atom_site_adp_type
_atom_site_occupancy
        C1          C  0.4192200  0.4171040  0.0000000    0.00000       Uiso       1.00
        C2          C  0.9192200  0.9171039  0.0000000    0.00000       Uiso       1.00
        C3          C  0.5807800  0.5828950  0.0000000    0.00000       Uiso       1.00
        C4          C  0.0807800  0.0828950  0.0000000    0.00000       Uiso       1.00
        C5          C  0.5807800  0.4171040  0.0000000    0.00000       Uiso       1.00
        C6          C  0.0807800  0.9171039  0.0000000    0.00000       Uiso       1.00
        C7          C  0.4192200  0.5828950  0.0000000    0.00000       Uiso       1.00
        C8          C  0.9192200  0.0828950  0.0000000    0.00000       Uiso       1.00
        C9          C  0.2911700  0.2906050 -0.1922520    0.00000       Uiso       1.00
       C10          C  0.7911700  0.7906039 -0.1922520    0.00000       Uiso       1.00
       C11          C  0.7088290  0.7093940 -0.1922520    0.00000       Uiso       1.00
       C12          C  0.2088290  0.2093940 -0.1922520    0.00000       Uiso       1.00
       C13          C  0.7088290  0.2906050  0.1922520    0.00000       Uiso       1.00
       C14          C  0.2088290  0.7906039  0.1922520    0.00000       Uiso       1.00
       C15          C  0.2911700  0.7093940  0.1922520    0.00000       Uiso       1.00
       C16          C  0.7911700  0.2093940  0.1922520    0.00000       Uiso       1.00
       C17          C  0.7088290  0.7093940  0.1922520    0.00000       Uiso       1.00
       C18          C  0.2088290  0.2093940  0.1922520    0.00000       Uiso       1.00
       C19          C  0.2911700  0.2906050  0.1922520    0.00000       Uiso       1.00
       C20          C  0.7911700  0.7906039  0.1922520    0.00000       Uiso       1.00
       C21          C  0.2911700  0.7093940 -0.1922520    0.00000       Uiso       1.00
       C22          C  0.7911700  0.2093940 -0.1922520    0.00000       Uiso       1.00
       C23          C  0.7088290  0.2906050 -0.1922520    0.00000       Uiso       1.00
       C24          C  0.2088290  0.7906039 -0.1922520    0.00000       Uiso       1.00
       C25          C  0.2705780  0.2702950 -0.0967170    0.00000       Uiso       1.00
       C26          C  0.7705780  0.7702940 -0.0967170    0.00000       Uiso       1.00
       C27          C  0.7294220  0.7297040 -0.0967170    0.00000       Uiso       1.00
       C28          C  0.2294220  0.2297040 -0.0967170    0.00000       Uiso       1.00
       C29          C  0.7294220  0.2702950  0.0967170    0.00000       Uiso       1.00
       C30          C  0.2294220  0.7702940  0.0967170    0.00000       Uiso       1.00
       C31          C  0.2705780  0.7297040  0.0967170    0.00000       Uiso       1.00
       C32          C  0.7705780  0.2297040  0.0967170    0.00000       Uiso       1.00
       C33          C  0.7294220  0.7297040  0.0967170    0.00000       Uiso       1.00
       C34          C  0.2294220  0.2297040  0.0967170    0.00000       Uiso       1.00
       C35          C  0.2705780  0.2702950  0.0967170    0.00000       Uiso       1.00
       C36          C  0.7705780  0.7702940  0.0967170    0.00000       Uiso       1.00
       C37          C  0.2705780  0.7297040 -0.0967170    0.00000       Uiso       1.00
       C38          C  0.7705780  0.2297040 -0.0967170    0.00000       Uiso       1.00
       C39          C  0.7294220  0.2702950 -0.0967170    0.00000       Uiso       1.00
       C40          C  0.2294220  0.7702940 -0.0967170    0.00000       Uiso       1.00
       N41          N  0.5492340  0.4999990  0.0000000    0.00000       Uiso       1.00
       N42          N  0.0492340  0.0000000  0.0000000    0.00000       Uiso       1.00
       N43          N  0.4507660  0.4999990  0.0000000    0.00000       Uiso       1.00
       N44          N  0.9507660  0.0000000  0.0000000    0.00000       Uiso       1.00
       H45          H  0.5266040  0.4999990  0.0000000    0.00000       Uiso       1.00
       H46          H  0.0266040  0.0000000  0.0000000    0.00000       Uiso       1.00
       H47          H  0.4733960  0.4999990  0.0000000    0.00000       Uiso       1.00
       H48          H  0.9733960  0.0000000  0.0000000    0.00000       Uiso       1.00
       C49          C  0.5675300  0.4734170  0.0000000    0.00000       Uiso       1.00
       C50          C  0.0675300  0.9734160  0.0000000    0.00000       Uiso       1.00
       C51          C  0.4324700  0.5265820  0.0000000    0.00000       Uiso       1.00
       C52          C  0.9324690  0.0265830  0.0000000    0.00000       Uiso       1.00
       C53          C  0.4324700  0.4734170  0.0000000    0.00000       Uiso       1.00
       C54          C  0.9324690  0.9734160  0.0000000    0.00000       Uiso       1.00
       C55          C  0.5675300  0.5265820  0.0000000    0.00000       Uiso       1.00
       C56          C  0.0675300  0.0265830  0.0000000    0.00000       Uiso       1.00
       C57          C  0.5992030  0.4841260  0.0000000    0.00000       Uiso       1.00
       C58          C  0.0992030  0.9841250  0.0000000    0.00000       Uiso       1.00
       C59          C  0.4007970  0.5158730  0.0000000    0.00000       Uiso       1.00
       C60          C  0.9007970  0.0158740  0.0000000    0.00000       Uiso       1.00
       C61          C  0.4007970  0.4841260  0.0000000    0.00000       Uiso       1.00
       C62          C  0.9007970  0.9841250  0.0000000    0.00000       Uiso       1.00
       C63          C  0.5992030  0.5158730  0.0000000    0.00000       Uiso       1.00
       C64          C  0.0992030  0.0158740  0.0000000    0.00000       Uiso       1.00
       H65          H  0.2918440  0.2912700 -0.3300790    0.00000       Uiso       1.00
       H66          H  0.7918441  0.7912691 -0.3300790    0.00000       Uiso       1.00
       H67          H  0.7081550  0.7087290 -0.3300790    0.00000       Uiso       1.00
       H68          H  0.2081550  0.2087300 -0.3300790    0.00000       Uiso       1.00
       H69          H  0.7081550  0.2912700  0.3300790    0.00000       Uiso       1.00
       H70          H  0.2081550  0.7912691  0.3300790    0.00000       Uiso       1.00
       H71          H  0.2918440  0.7087290  0.3300790    0.00000       Uiso       1.00
       H72          H  0.7918441  0.2087300  0.3300790    0.00000       Uiso       1.00
       H73          H  0.7081550  0.7087290  0.3300790    0.00000       Uiso       1.00
       H74          H  0.2081550  0.2087300  0.3300790    0.00000       Uiso       1.00
       H75          H  0.2918440  0.2912700  0.3300790    0.00000       Uiso       1.00
       H76          H  0.7918441  0.7912691  0.3300790    0.00000       Uiso       1.00
       H77          H  0.2918440  0.7087290 -0.3300790    0.00000       Uiso       1.00
       H78          H  0.7918441  0.2087300 -0.3300790    0.00000       Uiso       1.00
       H79          H  0.7081550  0.2912700 -0.3300790    0.00000       Uiso       1.00
       H80          H  0.2081550  0.7912691 -0.3300790    0.00000       Uiso       1.00
       H81          H  0.6187530  0.4702210  0.0000000    0.00000       Uiso       1.00
       H82          H  0.1187530  0.9702210  0.0000000    0.00000       Uiso       1.00
       H83          H  0.3812470  0.5297770  0.0000000    0.00000       Uiso       1.00
       H84          H  0.8812470  0.0297780  0.0000000    0.00000       Uiso       1.00
       H85          H  0.3812470  0.4702210  0.0000000    0.00000       Uiso       1.00
       H86          H  0.8812470  0.9702210  0.0000000    0.00000       Uiso       1.00
       H87          H  0.6187530  0.5297770  0.0000000    0.00000       Uiso       1.00
       H88          H  0.1187530  0.0297780  0.0000000    0.00000       Uiso       1.00
       N89          N  0.5000000  0.4489010  0.0000000    0.00000       Uiso       1.00
       N90          N  0.0000000  0.9489010  0.0000000    0.00000       Uiso       1.00
       N91          N  0.5000000  0.5510980  0.0000000    0.00000       Uiso       1.00
       N92          N  0.0000000  0.0510980  0.0000000    0.00000       Uiso       1.00
       C93          C  0.5263180  0.4305190  0.0000000    0.00000       Uiso       1.00
       C94          C  0.0263180  0.9305180  0.0000000    0.00000       Uiso       1.00
       C95          C  0.4736820  0.5694800  0.0000000    0.00000       Uiso       1.00
       C96          C  0.9736820  0.0694810  0.0000000    0.00000       Uiso       1.00
       C97          C  0.4736820  0.4305190  0.0000000    0.00000       Uiso       1.00
       C98          C  0.9736820  0.9305180  0.0000000    0.00000       Uiso       1.00
       C99          C  0.5263180  0.5694800  0.0000000    0.00000       Uiso       1.00
      C100          C  0.0263180  0.0694810  0.0000000    0.00000       Uiso       1.00
      C101          C  0.5164240  0.3989410  0.0000000    0.00000       Uiso       1.00
      C102          C  0.0164250  0.8989400  0.0000000    0.00000       Uiso       1.00
      C103          C  0.4835750  0.6010580  0.0000000    0.00000       Uiso       1.00
      C104          C  0.9835749  0.1010590  0.0000000    0.00000       Uiso       1.00
      C105          C  0.4835750  0.3989410  0.0000000    0.00000       Uiso       1.00
      C106          C  0.9835749  0.8989400  0.0000000    0.00000       Uiso       1.00
      C107          C  0.5164240  0.6010580  0.0000000    0.00000       Uiso       1.00
      C108          C  0.0164250  0.1010590  0.0000000    0.00000       Uiso       1.00
      H109          H  0.5301620  0.3790930  0.0000000    0.00000       Uiso       1.00
      H110          H  0.0301630  0.8790930  0.0000000    0.00000       Uiso       1.00
      H111          H  0.4698370  0.6209060  0.0000000    0.00000       Uiso       1.00
      H112          H  0.9698370  0.1209060  0.0000000    0.00000       Uiso       1.00
      H113          H  0.4698370  0.3790930  0.0000000    0.00000       Uiso       1.00
      H114          H  0.9698370  0.8790930  0.0000000    0.00000       Uiso       1.00
      H115          H  0.5301620  0.6209060  0.0000000    0.00000       Uiso       1.00
      H116          H  0.0301630  0.1209060  0.0000000    0.00000       Uiso       1.00
      C117          C  0.5578360  0.4404410  0.0000000    0.00000       Uiso       1.00
      C118          C  0.0578360  0.9404410  0.0000000    0.00000       Uiso       1.00
      C119          C  0.4421630  0.5595580  0.0000000    0.00000       Uiso       1.00
      C120          C  0.9421630  0.0595580  0.0000000    0.00000       Uiso       1.00
      C121          C  0.4421630  0.4404410  0.0000000    0.00000       Uiso       1.00
      C122          C  0.9421630  0.9404410  0.0000000    0.00000       Uiso       1.00
      C123          C  0.5578360  0.5595580  0.0000000    0.00000       Uiso       1.00
      C124          C  0.0578360  0.0595580  0.0000000    0.00000       Uiso       1.00
      C125          C  0.0930890  0.0952250 -0.1648610    0.00000       Uiso       1.00
      C126          C  0.5930890  0.5952250 -0.1648610    0.00000       Uiso       1.00
      C127          C  0.9069100  0.9047740 -0.1648610    0.00000       Uiso       1.00
      C128          C  0.4069100  0.4047740 -0.1648610    0.00000       Uiso       1.00
      C129          C  0.9069100  0.0952250  0.1648610    0.00000       Uiso       1.00
      C130          C  0.4069100  0.5952250  0.1648610    0.00000       Uiso       1.00
      C131          C  0.0930890  0.9047740  0.1648610    0.00000       Uiso       1.00
      C132          C  0.5930890  0.4047740  0.1648610    0.00000       Uiso       1.00
      C133          C  0.9069100  0.9047740  0.1648610    0.00000       Uiso       1.00
      C134          C  0.4069100  0.4047740  0.1648610    0.00000       Uiso       1.00
      C135          C  0.0930890  0.0952250  0.1648610    0.00000       Uiso       1.00
      C136          C  0.5930890  0.5952250  0.1648610    0.00000       Uiso       1.00
      C137          C  0.0930890  0.9047740 -0.1648610    0.00000       Uiso       1.00
      C138          C  0.5930890  0.4047740 -0.1648610    0.00000       Uiso       1.00
      C139          C  0.9069100  0.0952250 -0.1648610    0.00000       Uiso       1.00
      C140          C  0.4069100  0.5952250 -0.1648610    0.00000       Uiso       1.00
      C141          C  0.1166810  0.1185070 -0.1647620    0.00000       Uiso       1.00
      C142          C  0.6166810  0.6185060 -0.1647620    0.00000       Uiso       1.00
      C143          C  0.8833190  0.8814920 -0.1647620    0.00000       Uiso       1.00
      C144          C  0.3833190  0.3814930 -0.1647620    0.00000       Uiso       1.00
      C145          C  0.8833190  0.1185070  0.1647620    0.00000       Uiso       1.00
      C146          C  0.3833190  0.6185060  0.1647620    0.00000       Uiso       1.00
      C147          C  0.1166810  0.8814920  0.1647620    0.00000       Uiso       1.00
      C148          C  0.6166810  0.3814930  0.1647620    0.00000       Uiso       1.00
      C149          C  0.8833190  0.8814920  0.1647620    0.00000       Uiso       1.00
      C150          C  0.3833190  0.3814930  0.1647620    0.00000       Uiso       1.00
      C151          C  0.1166810  0.1185070  0.1647620    0.00000       Uiso       1.00
      C152          C  0.6166810  0.6185060  0.1647620    0.00000       Uiso       1.00
      C153          C  0.1166810  0.8814920 -0.1647620    0.00000       Uiso       1.00
      C154          C  0.6166810  0.3814930 -0.1647620    0.00000       Uiso       1.00
      C155          C  0.8833190  0.1185070 -0.1647620    0.00000       Uiso       1.00
      C156          C  0.3833190  0.6185060 -0.1647620    0.00000       Uiso       1.00
      O157          O  0.1676360  0.1687650 -0.1596480    0.00000       Uiso       1.00
      O158          O  0.6676360  0.6687650 -0.1596480    0.00000       Uiso       1.00
      O159          O  0.8323640  0.8312340 -0.1596480    0.00000       Uiso       1.00
      O160          O  0.3323640  0.3312340 -0.1596480    0.00000       Uiso       1.00
      O161          O  0.8323640  0.1687650  0.1596480    0.00000       Uiso       1.00
      O162          O  0.3323640  0.6687650  0.1596480    0.00000       Uiso       1.00
      O163          O  0.1676360  0.8312340  0.1596480    0.00000       Uiso       1.00
      O164          O  0.6676360  0.3312340  0.1596480    0.00000       Uiso       1.00
      O165          O  0.8323640  0.8312340  0.1596480    0.00000       Uiso       1.00
      O166          O  0.3323640  0.3312340  0.1596480    0.00000       Uiso       1.00
      O167          O  0.1676360  0.1687650  0.1596480    0.00000       Uiso       1.00
      O168          O  0.6676360  0.6687650  0.1596480    0.00000       Uiso       1.00
      O169          O  0.1676360  0.8312340 -0.1596480    0.00000       Uiso       1.00
      O170          O  0.6676360  0.3312340 -0.1596480    0.00000       Uiso       1.00
      O171          O  0.8323640  0.1687650 -0.1596480    0.00000       Uiso       1.00
      O172          O  0.3323640  0.6687650 -0.1596480    0.00000       Uiso       1.00
      C173          C  0.3112660  0.3104250 -0.0943890    0.00000       Uiso       1.00
      C174          C  0.8112660  0.8104250 -0.0943890    0.00000       Uiso       1.00
      C175          C  0.6887330  0.6895740 -0.0943890    0.00000       Uiso       1.00
      C176          C  0.1887330  0.1895740 -0.0943890    0.00000       Uiso       1.00
      C177          C  0.6887330  0.3104250  0.0943890    0.00000       Uiso       1.00
      C178          C  0.1887330  0.8104250  0.0943890    0.00000       Uiso       1.00
      C179          C  0.3112660  0.6895740  0.0943890    0.00000       Uiso       1.00
      C180          C  0.8112660  0.1895740  0.0943890    0.00000       Uiso       1.00
      C181          C  0.6887330  0.6895740  0.0943890    0.00000       Uiso       1.00
      C182          C  0.1887330  0.1895740  0.0943890    0.00000       Uiso       1.00
      C183          C  0.3112660  0.3104250  0.0943890    0.00000       Uiso       1.00
      C184          C  0.8112660  0.8104250  0.0943890    0.00000       Uiso       1.00
      C185          C  0.3112660  0.6895740 -0.0943890    0.00000       Uiso       1.00
      C186          C  0.8112660  0.1895740 -0.0943890    0.00000       Uiso       1.00
      C187          C  0.6887330  0.3104250 -0.0943890    0.00000       Uiso       1.00
      C188          C  0.1887330  0.8104250 -0.0943890    0.00000       Uiso       1.00
      C189          C  0.3716390  0.6308960  0.0000000    0.00000       Uiso       1.00
      C190          C  0.8716390  0.1308960  0.0000000    0.00000       Uiso       1.00
      C191          C  0.6283600  0.3691030  0.0000000    0.00000       Uiso       1.00
      C192          C  0.1283600  0.8691030  0.0000000    0.00000       Uiso       1.00
      C193          C  0.6283600  0.6308960  0.0000000    0.00000       Uiso       1.00
      C194          C  0.1283600  0.1308960  0.0000000    0.00000       Uiso       1.00
      C195          C  0.3716390  0.3691030  0.0000000    0.00000       Uiso       1.00
      C196          C  0.8716390  0.8691030  0.0000000    0.00000       Uiso       1.00
      B197          B  0.3466510  0.6555440  0.0000000    0.00000       Uiso       1.00
      B198          B  0.8466510  0.1555450  0.0000000    0.00000       Uiso       1.00
      B199          B  0.6533480  0.3444550  0.0000000    0.00000       Uiso       1.00
      B200          B  0.1533490  0.8444540  0.0000000    0.00000       Uiso       1.00
      B201          B  0.6533480  0.6555440  0.0000000    0.00000       Uiso       1.00
      B202          B  0.1533490  0.1555450  0.0000000    0.00000       Uiso       1.00
      B203          B  0.3466510  0.3444550  0.0000000    0.00000       Uiso       1.00
      B204          B  0.8466510  0.8444540  0.0000000    0.00000       Uiso       1.00
      C205          C  0.2500000  0.2500000 -0.1908850    0.00000       Uiso       1.00
      C206          C  0.7500000  0.7499990 -0.1908850    0.00000       Uiso       1.00
      C207          C  0.7500000  0.2500000  0.1908850    0.00000       Uiso       1.00
      C208          C  0.2500000  0.7499990  0.1908850    0.00000       Uiso       1.00
      C209          C  0.7500000  0.7499990  0.1908850    0.00000       Uiso       1.00
      C210          C  0.2500000  0.2500000  0.1908850    0.00000       Uiso       1.00
      C211          C  0.2500000  0.7499990 -0.1908850    0.00000       Uiso       1.00
      C212          C  0.7500000  0.2500000 -0.1908850    0.00000       Uiso       1.00
      H213          H  0.0846740  0.0869310 -0.2856960    0.00000       Uiso       1.00
      H214          H  0.5846740  0.5869300 -0.2856960    0.00000       Uiso       1.00
      H215          H  0.9153261  0.9130680 -0.2856960    0.00000       Uiso       1.00
      H216          H  0.4153260  0.4130680 -0.2856960    0.00000       Uiso       1.00
      H217          H  0.9153261  0.0869310  0.2856960    0.00000       Uiso       1.00
      H218          H  0.4153260  0.5869300  0.2856960    0.00000       Uiso       1.00
      H219          H  0.0846740  0.9130680  0.2856960    0.00000       Uiso       1.00
      H220          H  0.5846740  0.4130680  0.2856960    0.00000       Uiso       1.00
      H221          H  0.9153261  0.9130680  0.2856960    0.00000       Uiso       1.00
      H222          H  0.4153260  0.4130680  0.2856960    0.00000       Uiso       1.00
      H223          H  0.0846740  0.0869310  0.2856960    0.00000       Uiso       1.00
      H224          H  0.5846740  0.5869300  0.2856960    0.00000       Uiso       1.00
      H225          H  0.0846740  0.9130680 -0.2856960    0.00000       Uiso       1.00
      H226          H  0.5846740  0.4130680 -0.2856960    0.00000       Uiso       1.00
      H227          H  0.9153261  0.0869310 -0.2856960    0.00000       Uiso       1.00
      H228          H  0.4153260  0.5869300 -0.2856960    0.00000       Uiso       1.00
      H229          H  0.1250670  0.1267890 -0.2858430    0.00000       Uiso       1.00
      H230          H  0.6250670  0.6267880 -0.2858430    0.00000       Uiso       1.00
      H231          H  0.8749330  0.8732100 -0.2858430    0.00000       Uiso       1.00
      H232          H  0.3749330  0.3732110 -0.2858430    0.00000       Uiso       1.00
      H233          H  0.8749330  0.1267890  0.2858430    0.00000       Uiso       1.00
      H234          H  0.3749330  0.6267880  0.2858430    0.00000       Uiso       1.00
      H235          H  0.1250670  0.8732100  0.2858430    0.00000       Uiso       1.00
      H236          H  0.6250670  0.3732110  0.2858430    0.00000       Uiso       1.00
      H237          H  0.8749330  0.8732100  0.2858430    0.00000       Uiso       1.00
      H238          H  0.3749330  0.3732110  0.2858430    0.00000       Uiso       1.00
      H239          H  0.1250670  0.1267890  0.2858430    0.00000       Uiso       1.00
      H240          H  0.6250670  0.6267880  0.2858430    0.00000       Uiso       1.00
      H241          H  0.1250670  0.8732100 -0.2858430    0.00000       Uiso       1.00
      H242          H  0.6250670  0.3732110 -0.2858430    0.00000       Uiso       1.00
      H243          H  0.8749330  0.1267890 -0.2858430    0.00000       Uiso       1.00
      H244          H  0.3749330  0.6267880 -0.2858430    0.00000       Uiso       1.00
      H245          H  0.2500000  0.2500000 -0.3292620    0.00000       Uiso       1.00
      H246          H  0.7500000  0.7499990 -0.3292620    0.00000       Uiso       1.00
      H247          H  0.7500000  0.2500000  0.3292620    0.00000       Uiso       1.00
      H248          H  0.2500000  0.7499990  0.3292620    0.00000       Uiso       1.00
      H249          H  0.7500000  0.7499990  0.3292620    0.00000       Uiso       1.00
      H250          H  0.2500000  0.2500000  0.3292620    0.00000       Uiso       1.00
      H251          H  0.2500000  0.7499990 -0.3292620    0.00000       Uiso       1.00
      H252          H  0.7500000  0.2500000 -0.3292620    0.00000       Uiso       1.00
