data_COF-ASB
_audit_creation_date              0000-00-00
_audit_creation_method            'LanYouShi'
_symmetry_space_group_name_H-M    'P1'
_cell_length_a                    31.8230000
_cell_length_b                    31.8230000
_cell_length_c                    3.7000000
_cell_angle_alpha                 90.0000000
_cell_angle_beta                  90.0000000
_cell_angle_gamma                 120.0000000
loop_
_atom_site_label
_atom_site_type_symbol
_atom_site_fract_x
_atom_site_fract_y
_atom_site_fract_z
_atom_site_U_iso_or_equiv
_atom_site_adp_type
_atom_site_occupancy
       xx1          C  0.6165400  0.3065100  0.9291900    0.00000       Uiso       1.00
       xx2          C  0.6423500  0.2813400  0.9289200    0.00000       Uiso       1.00
       xx3          C  0.6196000  0.2246200  0.8825800    0.00000       Uiso       1.00
       xx4          O  0.6316100  0.2079700  0.6263800    0.00000       Uiso       1.00
       xx5          N  0.5878300  0.1920000  0.1287300    0.00000       Uiso       1.00
       xx6          N  0.5539000  0.1415000  0.0680300    0.00000       Uiso       1.00
       xx7          C  0.5652900  0.1082300  0.0528200    0.00000       Uiso       1.00
       xx8          C  0.5302700  0.0534100  0.0355700    0.00000       Uiso       1.00
       xx9          C  0.5489200  0.0215700  0.0339600    0.00000       Uiso       1.00
      xx10          C  0.4794400  0.0289300  0.0339600    0.00000       Uiso       1.00
      xx11          H  0.5764400  0.2859000  0.9172500    0.00000       Uiso       1.00
      xx12          H  0.5720800  0.2035100  0.3123200    0.00000       Uiso       1.00
      xx13          H  0.6040700  0.1176900  0.0647800    0.00000       Uiso       1.00
      xx14          H  0.5887800  0.0374400  0.0352700    0.00000       Uiso       1.00
      xx15          H  0.4611100  0.0506000  0.0351700    0.00000       Uiso       1.00
      xx16          C  0.6934900  0.3100300  0.9291900    0.00000       Uiso       1.00
      xx17          C  0.7186601  0.3610100  0.9289200    0.00000       Uiso       1.00
      xx18          C  0.7753800  0.3949800  0.8825800    0.00000       Uiso       1.00
      xx19          O  0.7920300  0.4236400  0.6263800    0.00000       Uiso       1.00
      xx20          N  0.8080000  0.3958300  0.1287300    0.00000       Uiso       1.00
      xx21          N  0.8585000  0.4124000  0.0680300    0.00000       Uiso       1.00
      xx22          C  0.8917700  0.4570600  0.0528200    0.00000       Uiso       1.00
      xx23          C  0.9465900  0.4768600  0.0355700    0.00000       Uiso       1.00
      xx24          C  0.9784300  0.5273500  0.0339600    0.00000       Uiso       1.00
      xx25          C  0.9710700  0.4505100  0.0339600    0.00000       Uiso       1.00
      xx26          H  0.7141000  0.2905400  0.9172500    0.00000       Uiso       1.00
      xx27          H  0.7964900  0.3685700  0.3123200    0.00000       Uiso       1.00
      xx28          H  0.8823100  0.4863800  0.0647800    0.00000       Uiso       1.00
      xx29          H  0.9625600  0.5513400  0.0352700    0.00000       Uiso       1.00
      xx30          H  0.9494000  0.4105100  0.0351700    0.00000       Uiso       1.00
      xx31          C  0.6899700  0.3834600  0.9291900    0.00000       Uiso       1.00
      xx32          C  0.6389900  0.3576500  0.9289200    0.00000       Uiso       1.00
      xx33          C  0.6050200  0.3804000  0.8825800    0.00000       Uiso       1.00
      xx34          O  0.5763600  0.3683900  0.6263800    0.00000       Uiso       1.00
      xx35          N  0.6041700  0.4121700  0.1287300    0.00000       Uiso       1.00
      xx36          N  0.5876000  0.4461000  0.0680300    0.00000       Uiso       1.00
      xx37          C  0.5429400  0.4347100  0.0528200    0.00000       Uiso       1.00
      xx38          C  0.5231400  0.4697300  0.0355700    0.00000       Uiso       1.00
      xx39          C  0.4726500  0.4510800  0.0339600    0.00000       Uiso       1.00
      xx40          C  0.5494900  0.5205600  0.0339600    0.00000       Uiso       1.00
      xx41          H  0.7094600  0.4235600  0.9172500    0.00000       Uiso       1.00
      xx42          H  0.6314300  0.4279200  0.3123200    0.00000       Uiso       1.00
      xx43          H  0.5136200  0.3959300  0.0647800    0.00000       Uiso       1.00
      xx44          H  0.4486600  0.4112200  0.0352700    0.00000       Uiso       1.00
      xx45          H  0.5894900  0.5388900  0.0351700    0.00000       Uiso       1.00
      xx46          C  0.3834600  0.6934900  0.9291900    0.00000       Uiso       1.00
      xx47          C  0.3576500  0.7186600  0.9289200    0.00000       Uiso       1.00
      xx48          C  0.3804000  0.7753800  0.8825800    0.00000       Uiso       1.00
      xx49          O  0.3683900  0.7920300  0.6263800    0.00000       Uiso       1.00
      xx50          N  0.4121700  0.8080000  0.1287300    0.00000       Uiso       1.00
      xx51          N  0.4461000  0.8585000  0.0680300    0.00000       Uiso       1.00
      xx52          C  0.4347100  0.8917700  0.0528200    0.00000       Uiso       1.00
      xx53          C  0.4697300  0.9465900  0.0355700    0.00000       Uiso       1.00
      xx54          C  0.4510800  0.9784300  0.0339600    0.00000       Uiso       1.00
      xx55          C  0.5205600  0.9710701  0.0339600    0.00000       Uiso       1.00
      xx56          H  0.4235600  0.7141000  0.9172500    0.00000       Uiso       1.00
      xx57          H  0.4279200  0.7964900  0.3123200    0.00000       Uiso       1.00
      xx58          H  0.3959300  0.8823100  0.0647800    0.00000       Uiso       1.00
      xx59          H  0.4112200  0.9625601  0.0352700    0.00000       Uiso       1.00
      xx60          H  0.5388900  0.9494000  0.0351700    0.00000       Uiso       1.00
      xx61          C  0.3065100  0.6899700  0.9291900    0.00000       Uiso       1.00
      xx62          C  0.2813400  0.6389900  0.9289200    0.00000       Uiso       1.00
      xx63          C  0.2246200  0.6050200  0.8825800    0.00000       Uiso       1.00
      xx64          O  0.2079700  0.5763600  0.6263800    0.00000       Uiso       1.00
      xx65          N  0.1920000  0.6041700  0.1287300    0.00000       Uiso       1.00
      xx66          N  0.1415000  0.5876000  0.0680300    0.00000       Uiso       1.00
      xx67          C  0.1082300  0.5429400  0.0528200    0.00000       Uiso       1.00
      xx68          C  0.0534100  0.5231400  0.0355700    0.00000       Uiso       1.00
      xx69          C  0.0215700  0.4726500  0.0339600    0.00000       Uiso       1.00
      xx70          C  0.0289300  0.5494900  0.0339600    0.00000       Uiso       1.00
      xx71          H  0.2859000  0.7094600  0.9172500    0.00000       Uiso       1.00
      xx72          H  0.2035100  0.6314300  0.3123200    0.00000       Uiso       1.00
      xx73          H  0.1176900  0.5136200  0.0647800    0.00000       Uiso       1.00
      xx74          H  0.0374400  0.4486600  0.0352700    0.00000       Uiso       1.00
      xx75          H  0.0506000  0.5894900  0.0351700    0.00000       Uiso       1.00
      xx76          C  0.3100300  0.6165400  0.9291900    0.00000       Uiso       1.00
      xx77          C  0.3610100  0.6423500  0.9289200    0.00000       Uiso       1.00
      xx78          C  0.3949800  0.6196000  0.8825800    0.00000       Uiso       1.00
      xx79          O  0.4236400  0.6316100  0.6263800    0.00000       Uiso       1.00
      xx80          N  0.3958300  0.5878300  0.1287300    0.00000       Uiso       1.00
      xx81          N  0.4124000  0.5539000  0.0680300    0.00000       Uiso       1.00
      xx82          C  0.4570600  0.5652900  0.0528200    0.00000       Uiso       1.00
      xx83          C  0.4768600  0.5302700  0.0355700    0.00000       Uiso       1.00
      xx84          C  0.5273500  0.5489200  0.0339600    0.00000       Uiso       1.00
      xx85          C  0.4505100  0.4794400  0.0339600    0.00000       Uiso       1.00
      xx86          H  0.2905400  0.5764400  0.9172500    0.00000       Uiso       1.00
      xx87          H  0.3685700  0.5720800  0.3123200    0.00000       Uiso       1.00
      xx88          H  0.4863800  0.6040699  0.0647800    0.00000       Uiso       1.00
      xx89          H  0.5513400  0.5887800  0.0352700    0.00000       Uiso       1.00
      xx90          H  0.4105100  0.4611100  0.0351700    0.00000       Uiso       1.00
