data_COF-DL229_8
_audit_creation_date              0000-00-00
_audit_creation_method            'LanYouShi'
_symmetry_space_group_name_H-M    'P1'
_cell_length_a                    22.5799999
_cell_length_b                    22.5799999
_cell_length_c                    7.3000002
_cell_angle_alpha                 90.0000000
_cell_angle_beta                  90.0000000
_cell_angle_gamma                 90.0000000
loop_
_atom_site_label
_atom_site_type_symbol
_atom_site_fract_x
_atom_site_fract_y
_atom_site_fract_z
_atom_site_U_iso_or_equiv
_atom_site_adp_type
_atom_site_occupancy
       xx1          C  0.4078700  0.8323200  0.5588600    0.00000       Uiso       1.00
       xx2          C  0.4423700  0.8666000  0.6765300    0.00000       Uiso       1.00
       xx3          C  0.2693000  0.6932800  0.9505600    0.00000       Uiso       1.00
       xx4          H  0.4244200  0.7899800  0.5113800    0.00000       Uiso       1.00
       xx5          H  0.4853000  0.8491300  0.7109400    0.00000       Uiso       1.00
       xx6          H  0.2847600  0.6496000  0.9117000    0.00000       Uiso       1.00
       xx7          H  0.0305700  0.3930700  0.0788500    0.00000       Uiso       1.00
       xx8          C  0.5921300  0.1676800  0.5588600    0.00000       Uiso       1.00
       xx9          C  0.5576300  0.1334000  0.6765300    0.00000       Uiso       1.00
      xx10          C  0.7307000  0.3067200  0.9505600    0.00000       Uiso       1.00
      xx11          H  0.5755800  0.2100200  0.5113800    0.00000       Uiso       1.00
      xx12          H  0.5147000  0.1508700  0.7109400    0.00000       Uiso       1.00
      xx13          H  0.7152400  0.3504000  0.9117000    0.00000       Uiso       1.00
      xx14          H  0.9694300  0.6069300  0.0788500    0.00000       Uiso       1.00
      xx15          C  0.1676800  0.4078700  0.5588600    0.00000       Uiso       1.00
      xx16          C  0.1334000  0.4423700  0.6765300    0.00000       Uiso       1.00
      xx17          C  0.3067200  0.2693000  0.9505600    0.00000       Uiso       1.00
      xx18          H  0.2100200  0.4244200  0.5113800    0.00000       Uiso       1.00
      xx19          H  0.1508700  0.4853000  0.7109400    0.00000       Uiso       1.00
      xx20          H  0.3504000  0.2847600  0.9117000    0.00000       Uiso       1.00
      xx21          H  0.6069300  0.0305700  0.0788500    0.00000       Uiso       1.00
      xx22          C  0.8323200  0.5921300  0.5588600    0.00000       Uiso       1.00
      xx23          C  0.8666000  0.5576300  0.6765300    0.00000       Uiso       1.00
      xx24          C  0.6932800  0.7307000  0.9505600    0.00000       Uiso       1.00
      xx25          H  0.7899800  0.5755800  0.5113800    0.00000       Uiso       1.00
      xx26          H  0.8491300  0.5147000  0.7109400    0.00000       Uiso       1.00
      xx27          H  0.6496000  0.7152400  0.9117000    0.00000       Uiso       1.00
      xx28          H  0.3930700  0.9694300  0.0788500    0.00000       Uiso       1.00
      xx29          C  0.5921300  0.8323200  0.4411400    0.00000       Uiso       1.00
      xx30          C  0.5576300  0.8666000  0.3234700    0.00000       Uiso       1.00
      xx31          C  0.7307000  0.6932800  0.0494400    0.00000       Uiso       1.00
      xx32          H  0.5755800  0.7899800  0.4886200    0.00000       Uiso       1.00
      xx33          H  0.5147000  0.8491300  0.2890600    0.00000       Uiso       1.00
      xx34          H  0.7152400  0.6496000  0.0883000    0.00000       Uiso       1.00
      xx35          H  0.9694300  0.3930700  0.9211500    0.00000       Uiso       1.00
      xx36          C  0.4078700  0.1676800  0.4411400    0.00000       Uiso       1.00
      xx37          C  0.4423700  0.1334000  0.3234700    0.00000       Uiso       1.00
      xx38          C  0.2693000  0.3067200  0.0494400    0.00000       Uiso       1.00
      xx39          H  0.4244200  0.2100200  0.4886200    0.00000       Uiso       1.00
      xx40          H  0.4853000  0.1508700  0.2890600    0.00000       Uiso       1.00
      xx41          H  0.2847600  0.3504000  0.0883000    0.00000       Uiso       1.00
      xx42          H  0.0305700  0.6069300  0.9211500    0.00000       Uiso       1.00
      xx43          C  0.8323200  0.4078700  0.4411400    0.00000       Uiso       1.00
      xx44          C  0.8666000  0.4423700  0.3234700    0.00000       Uiso       1.00
      xx45          C  0.6932800  0.2693000  0.0494400    0.00000       Uiso       1.00
      xx46          H  0.7899800  0.4244200  0.4886200    0.00000       Uiso       1.00
      xx47          H  0.8491300  0.4853000  0.2890600    0.00000       Uiso       1.00
      xx48          H  0.6496000  0.2847600  0.0883000    0.00000       Uiso       1.00
      xx49          H  0.3930700  0.0305700  0.9211500    0.00000       Uiso       1.00
      xx50          C  0.1676800  0.5921300  0.4411400    0.00000       Uiso       1.00
      xx51          C  0.1334000  0.5576300  0.3234700    0.00000       Uiso       1.00
      xx52          C  0.3067200  0.7307000  0.0494400    0.00000       Uiso       1.00
      xx53          H  0.2100200  0.5755800  0.4886200    0.00000       Uiso       1.00
      xx54          H  0.1508700  0.5147000  0.2890600    0.00000       Uiso       1.00
      xx55          H  0.3504000  0.7152400  0.0883000    0.00000       Uiso       1.00
      xx56          H  0.6069300  0.9694300  0.9211500    0.00000       Uiso       1.00
      xx57          C  0.0921300  0.6676800  0.4411400    0.00000       Uiso       1.00
      xx58          C  0.0576300  0.6334000  0.3234700    0.00000       Uiso       1.00
      xx59          C  0.2307000  0.8067200  0.0494400    0.00000       Uiso       1.00
      xx60          H  0.0755800  0.7100200  0.4886200    0.00000       Uiso       1.00
      xx61          H  0.0147000  0.6508700  0.2890600    0.00000       Uiso       1.00
      xx62          H  0.2152400  0.8504000  0.0883000    0.00000       Uiso       1.00
      xx63          H  0.4694300  0.1069300  0.9211500    0.00000       Uiso       1.00
      xx64          C  0.9078700  0.3323200  0.4411400    0.00000       Uiso       1.00
      xx65          C  0.9423700  0.3666000  0.3234700    0.00000       Uiso       1.00
      xx66          C  0.7693000  0.1932800  0.0494400    0.00000       Uiso       1.00
      xx67          H  0.9244200  0.2899800  0.4886200    0.00000       Uiso       1.00
      xx68          H  0.9853000  0.3491300  0.2890600    0.00000       Uiso       1.00
      xx69          H  0.7847600  0.1496000  0.0883000    0.00000       Uiso       1.00
      xx70          H  0.5305700  0.8930700  0.9211500    0.00000       Uiso       1.00
      xx71          C  0.3323200  0.0921300  0.4411400    0.00000       Uiso       1.00
      xx72          C  0.3666000  0.0576300  0.3234700    0.00000       Uiso       1.00
      xx73          C  0.1932800  0.2307000  0.0494400    0.00000       Uiso       1.00
      xx74          H  0.2899800  0.0755800  0.4886200    0.00000       Uiso       1.00
      xx75          H  0.3491300  0.0147000  0.2890600    0.00000       Uiso       1.00
      xx76          H  0.1496000  0.2152400  0.0883000    0.00000       Uiso       1.00
      xx77          H  0.8930700  0.4694300  0.9211500    0.00000       Uiso       1.00
      xx78          C  0.6676800  0.9078700  0.4411400    0.00000       Uiso       1.00
      xx79          C  0.6334000  0.9423700  0.3234700    0.00000       Uiso       1.00
      xx80          C  0.8067200  0.7693000  0.0494400    0.00000       Uiso       1.00
      xx81          H  0.7100200  0.9244200  0.4886200    0.00000       Uiso       1.00
      xx82          H  0.6508700  0.9853000  0.2890600    0.00000       Uiso       1.00
      xx83          H  0.8504000  0.7847600  0.0883000    0.00000       Uiso       1.00
      xx84          H  0.1069300  0.5305700  0.9211500    0.00000       Uiso       1.00
      xx85          C  0.9078700  0.6676800  0.5588600    0.00000       Uiso       1.00
      xx86          C  0.9423700  0.6334000  0.6765300    0.00000       Uiso       1.00
      xx87          C  0.7693000  0.8067200  0.9505600    0.00000       Uiso       1.00
      xx88          H  0.9244200  0.7100200  0.5113800    0.00000       Uiso       1.00
      xx89          H  0.9853000  0.6508700  0.7109400    0.00000       Uiso       1.00
      xx90          H  0.7847600  0.8504000  0.9117000    0.00000       Uiso       1.00
      xx91          H  0.5305700  0.1069300  0.0788500    0.00000       Uiso       1.00
      xx92          C  0.0921300  0.3323200  0.5588600    0.00000       Uiso       1.00
      xx93          C  0.0576300  0.3666000  0.6765300    0.00000       Uiso       1.00
      xx94          C  0.2307000  0.1932800  0.9505600    0.00000       Uiso       1.00
      xx95          H  0.0755800  0.2899800  0.5113800    0.00000       Uiso       1.00
      xx96          H  0.0147000  0.3491300  0.7109400    0.00000       Uiso       1.00
      xx97          H  0.2152400  0.1496000  0.9117000    0.00000       Uiso       1.00
      xx98          H  0.4694300  0.8930700  0.0788500    0.00000       Uiso       1.00
      xx99          C  0.6676800  0.0921300  0.5588600    0.00000       Uiso       1.00
     xx100          C  0.6334000  0.0576300  0.6765300    0.00000       Uiso       1.00
     xx101          C  0.8067200  0.2307000  0.9505600    0.00000       Uiso       1.00
     xx102          H  0.7100200  0.0755800  0.5113800    0.00000       Uiso       1.00
     xx103          H  0.6508700  0.0147000  0.7109400    0.00000       Uiso       1.00
     xx104          H  0.8504000  0.2152400  0.9117000    0.00000       Uiso       1.00
     xx105          H  0.1069300  0.4694300  0.0788500    0.00000       Uiso       1.00
     xx106          C  0.3323200  0.9078700  0.5588600    0.00000       Uiso       1.00
     xx107          C  0.3666000  0.9423700  0.6765300    0.00000       Uiso       1.00
     xx108          C  0.1932800  0.7693000  0.9505600    0.00000       Uiso       1.00
     xx109          H  0.2899800  0.9244200  0.5113800    0.00000       Uiso       1.00
     xx110          H  0.3491300  0.9853000  0.7109400    0.00000       Uiso       1.00
     xx111          H  0.1496000  0.7847600  0.9117000    0.00000       Uiso       1.00
     xx112          H  0.8930700  0.5305700  0.0788500    0.00000       Uiso       1.00
     xx113          C  0.4217500  0.9217501  0.7436900    0.00000       Uiso       1.00
     xx114          N  0.3191100  0.8191099  0.3895100    0.00000       Uiso       1.00
     xx115          C  0.3231800  0.8231800  0.2054900    0.00000       Uiso       1.00
     xx116          C  0.9603500  0.4603500  0.1283300    0.00000       Uiso       1.00
     xx117          H  0.3538000  0.8538001  0.1410600    0.00000       Uiso       1.00
     xx118          C  0.5782500  0.0782500  0.7436900    0.00000       Uiso       1.00
     xx119          N  0.6808900  0.1808900  0.3895100    0.00000       Uiso       1.00
     xx120          C  0.6768200  0.1768200  0.2054900    0.00000       Uiso       1.00
     xx121          C  0.0396500  0.5396500  0.1283300    0.00000       Uiso       1.00
     xx122          H  0.6462000  0.1462000  0.1410600    0.00000       Uiso       1.00
     xx123          C  0.0782500  0.4217500  0.7436900    0.00000       Uiso       1.00
     xx124          N  0.1808900  0.3191100  0.3895100    0.00000       Uiso       1.00
     xx125          C  0.1768200  0.3231800  0.2054900    0.00000       Uiso       1.00
     xx126          C  0.5396500  0.9603500  0.1283300    0.00000       Uiso       1.00
     xx127          H  0.1462000  0.3538000  0.1410600    0.00000       Uiso       1.00
     xx128          C  0.9217501  0.5782500  0.7436900    0.00000       Uiso       1.00
     xx129          N  0.8191099  0.6808900  0.3895100    0.00000       Uiso       1.00
     xx130          C  0.8231800  0.6768200  0.2054900    0.00000       Uiso       1.00
     xx131          C  0.4603500  0.0396500  0.1283300    0.00000       Uiso       1.00
     xx132          H  0.8538001  0.6462000  0.1410600    0.00000       Uiso       1.00
     xx133          C  0.5782500  0.9217501  0.2563100    0.00000       Uiso       1.00
     xx134          N  0.6808900  0.8191099  0.6104900    0.00000       Uiso       1.00
     xx135          C  0.6768200  0.8231800  0.7945101    0.00000       Uiso       1.00
     xx136          C  0.0396500  0.4603500  0.8716700    0.00000       Uiso       1.00
     xx137          H  0.6462000  0.8538001  0.8589400    0.00000       Uiso       1.00
     xx138          C  0.4217500  0.0782500  0.2563100    0.00000       Uiso       1.00
     xx139          N  0.3191100  0.1808900  0.6104900    0.00000       Uiso       1.00
     xx140          C  0.3231800  0.1768200  0.7945101    0.00000       Uiso       1.00
     xx141          C  0.9603500  0.5396500  0.8716700    0.00000       Uiso       1.00
     xx142          H  0.3538000  0.1462000  0.8589400    0.00000       Uiso       1.00
     xx143          C  0.9217501  0.4217500  0.2563100    0.00000       Uiso       1.00
     xx144          N  0.8191099  0.3191100  0.6104900    0.00000       Uiso       1.00
     xx145          C  0.8231800  0.3231800  0.7945101    0.00000       Uiso       1.00
     xx146          C  0.4603500  0.9603500  0.8716700    0.00000       Uiso       1.00
     xx147          H  0.8538001  0.3538000  0.8589400    0.00000       Uiso       1.00
     xx148          C  0.0782500  0.5782500  0.2563100    0.00000       Uiso       1.00
     xx149          N  0.1808900  0.6808900  0.6104900    0.00000       Uiso       1.00
     xx150          C  0.1768200  0.6768200  0.7945101    0.00000       Uiso       1.00
     xx151          C  0.5396500  0.0396500  0.8716700    0.00000       Uiso       1.00
     xx152          H  0.1462000  0.6462000  0.8589400    0.00000       Uiso       1.00
     xx153          C  0.6472900  0.1472900  0.5009500    0.00000       Uiso       1.00
     xx154          C  0.7875800  0.2875800  0.9016199    0.00000       Uiso       1.00
     xx155          C  0.3527100  0.8527100  0.5009500    0.00000       Uiso       1.00
     xx156          C  0.2124200  0.7124200  0.9016199    0.00000       Uiso       1.00
     xx157          C  0.8527100  0.6472900  0.5009500    0.00000       Uiso       1.00
     xx158          C  0.7124200  0.7875800  0.9016199    0.00000       Uiso       1.00
     xx159          C  0.1472900  0.3527100  0.5009500    0.00000       Uiso       1.00
     xx160          C  0.2875800  0.2124200  0.9016199    0.00000       Uiso       1.00
     xx161          C  0.3527100  0.1472900  0.4990500    0.00000       Uiso       1.00
     xx162          C  0.2124200  0.2875800  0.0983800    0.00000       Uiso       1.00
     xx163          C  0.6472900  0.8527100  0.4990500    0.00000       Uiso       1.00
     xx164          C  0.7875800  0.7124200  0.0983800    0.00000       Uiso       1.00
     xx165          C  0.1472900  0.6472900  0.4990500    0.00000       Uiso       1.00
     xx166          C  0.2875800  0.7875800  0.0983800    0.00000       Uiso       1.00
     xx167          C  0.8527100  0.3527100  0.4990500    0.00000       Uiso       1.00
     xx168          C  0.7124200  0.2124200  0.0983800    0.00000       Uiso       1.00
     xx169          C  0.0000000  0.4218100  0.0000000    0.00000       Uiso       1.00
     xx170          C  0.0000000  0.5781900  0.0000000    0.00000       Uiso       1.00
     xx171          C  0.5781900  0.0000000  0.0000000    0.00000       Uiso       1.00
     xx172          C  0.4218100  0.0000000  0.0000000    0.00000       Uiso       1.00
     xx173          C  0.5000000  0.0781900  0.0000000    0.00000       Uiso       1.00
     xx174          C  0.5000000  0.9218099  0.0000000    0.00000       Uiso       1.00
     xx175          C  0.9218099  0.5000000  0.0000000    0.00000       Uiso       1.00
     xx176          C  0.0781900  0.5000000  0.0000000    0.00000       Uiso       1.00
     xx177          C  0.0000000  0.5000000  0.2483200    0.00000       Uiso       1.00
     xx178          C  0.5000000  0.0000000  0.2483200    0.00000       Uiso       1.00
     xx179          C  0.0000000  0.5000000  0.7516800    0.00000       Uiso       1.00
     xx180          C  0.5000000  0.0000000  0.7516800    0.00000       Uiso       1.00
     xx181          H  0.9718600  0.5281400  0.3385800    0.00000       Uiso       1.00
     xx182          H  0.0281400  0.4718600  0.3385800    0.00000       Uiso       1.00
     xx183          H  0.4718600  0.9718600  0.3385800    0.00000       Uiso       1.00
     xx184          H  0.5281400  0.0281400  0.3385800    0.00000       Uiso       1.00
     xx185          H  0.0281400  0.5281400  0.6614199    0.00000       Uiso       1.00
     xx186          H  0.9718600  0.4718600  0.6614199    0.00000       Uiso       1.00
     xx187          H  0.5281400  0.9718600  0.6614199    0.00000       Uiso       1.00
     xx188          H  0.4718600  0.0281400  0.6614199    0.00000       Uiso       1.00
