data_COF-DL229_2
_audit_creation_date              0000-00-00
_audit_creation_method            'LanYouShi'
_symmetry_space_group_name_H-M    'P1'
_cell_length_a                    22.2199993
_cell_length_b                    22.2199993
_cell_length_c                    30.0100002
_cell_angle_alpha                 90.0000000
_cell_angle_beta                  90.0000000
_cell_angle_gamma                 90.0000000
loop_
_atom_site_label
_atom_site_type_symbol
_atom_site_fract_x
_atom_site_fract_y
_atom_site_fract_z
_atom_site_U_iso_or_equiv
_atom_site_adp_type
_atom_site_occupancy
       xx1          C  0.4058700  0.3291500  0.8925000    0.00000       Uiso       1.00
       xx2          C  0.4408600  0.3639200  0.9213700    0.00000       Uiso       1.00
       xx3          C  0.2707700  0.1935700  0.7360600    0.00000       Uiso       1.00
       xx4          H  0.4227600  0.2861600  0.8809400    0.00000       Uiso       1.00
       xx5          H  0.4843700  0.3460500  0.9299300    0.00000       Uiso       1.00
       xx6          H  0.2872800  0.1499600  0.7254800    0.00000       Uiso       1.00
       xx7          H  0.9690600  0.8912600  0.4807600    0.00000       Uiso       1.00
       xx8          C  0.5941300  0.6708500  0.8925000    0.00000       Uiso       1.00
       xx9          C  0.5591400  0.6360800  0.9213700    0.00000       Uiso       1.00
      xx10          C  0.7292300  0.8064299  0.7360600    0.00000       Uiso       1.00
      xx11          H  0.5772400  0.7138400  0.8809400    0.00000       Uiso       1.00
      xx12          H  0.5156300  0.6539500  0.9299300    0.00000       Uiso       1.00
      xx13          H  0.7127200  0.8500400  0.7254800    0.00000       Uiso       1.00
      xx14          H  0.0309400  0.1087400  0.4807600    0.00000       Uiso       1.00
      xx15          C  0.1708500  0.9058700  0.3925000    0.00000       Uiso       1.00
      xx16          C  0.1360800  0.9408600  0.4213700    0.00000       Uiso       1.00
      xx17          C  0.3064300  0.7707700  0.2360600    0.00000       Uiso       1.00
      xx18          H  0.2138400  0.9227600  0.3809400    0.00000       Uiso       1.00
      xx19          H  0.1539500  0.9843699  0.4299300    0.00000       Uiso       1.00
      xx20          H  0.3500400  0.7872801  0.2254800    0.00000       Uiso       1.00
      xx21          H  0.6087400  0.4690600  0.9807600    0.00000       Uiso       1.00
      xx22          C  0.8291501  0.0941300  0.3925000    0.00000       Uiso       1.00
      xx23          C  0.8639199  0.0591400  0.4213700    0.00000       Uiso       1.00
      xx24          C  0.6935700  0.2292300  0.2360600    0.00000       Uiso       1.00
      xx25          H  0.7861601  0.0772400  0.3809400    0.00000       Uiso       1.00
      xx26          H  0.8460500  0.0156300  0.4299300    0.00000       Uiso       1.00
      xx27          H  0.6499600  0.2127200  0.2254800    0.00000       Uiso       1.00
      xx28          H  0.3912600  0.5309400  0.9807600    0.00000       Uiso       1.00
      xx29          C  0.5941300  0.3291500  0.1075000    0.00000       Uiso       1.00
      xx30          C  0.5591400  0.3639200  0.0786300    0.00000       Uiso       1.00
      xx31          C  0.7292300  0.1935700  0.2639400    0.00000       Uiso       1.00
      xx32          H  0.5772400  0.2861600  0.1190600    0.00000       Uiso       1.00
      xx33          H  0.5156300  0.3460500  0.0700700    0.00000       Uiso       1.00
      xx34          H  0.7127200  0.1499600  0.2745200    0.00000       Uiso       1.00
      xx35          H  0.0309400  0.8912600  0.5192400    0.00000       Uiso       1.00
      xx36          C  0.4058700  0.6708500  0.1075000    0.00000       Uiso       1.00
      xx37          C  0.4408600  0.6360800  0.0786300    0.00000       Uiso       1.00
      xx38          C  0.2707700  0.8064299  0.2639400    0.00000       Uiso       1.00
      xx39          H  0.4227600  0.7138400  0.1190600    0.00000       Uiso       1.00
      xx40          H  0.4843700  0.6539500  0.0700700    0.00000       Uiso       1.00
      xx41          H  0.2872800  0.8500400  0.2745200    0.00000       Uiso       1.00
      xx42          H  0.9690600  0.1087400  0.5192400    0.00000       Uiso       1.00
      xx43          C  0.8291501  0.9058700  0.6075000    0.00000       Uiso       1.00
      xx44          C  0.8639199  0.9408600  0.5786300    0.00000       Uiso       1.00
      xx45          C  0.6935700  0.7707700  0.7639400    0.00000       Uiso       1.00
      xx46          H  0.7861601  0.9227600  0.6190600    0.00000       Uiso       1.00
      xx47          H  0.8460500  0.9843699  0.5700700    0.00000       Uiso       1.00
      xx48          H  0.6499600  0.7872801  0.7745200    0.00000       Uiso       1.00
      xx49          H  0.3912600  0.4690600  0.0192400    0.00000       Uiso       1.00
      xx50          C  0.1708500  0.0941300  0.6075000    0.00000       Uiso       1.00
      xx51          C  0.1360800  0.0591400  0.5786300    0.00000       Uiso       1.00
      xx52          C  0.3064300  0.2292300  0.7639400    0.00000       Uiso       1.00
      xx53          H  0.2138400  0.0772400  0.6190600    0.00000       Uiso       1.00
      xx54          H  0.1539500  0.0156300  0.5700700    0.00000       Uiso       1.00
      xx55          H  0.3500400  0.2127200  0.7745200    0.00000       Uiso       1.00
      xx56          H  0.6087400  0.5309400  0.0192400    0.00000       Uiso       1.00
      xx57          C  0.0941300  0.1708500  0.6075000    0.00000       Uiso       1.00
      xx58          C  0.0591400  0.1360800  0.5786300    0.00000       Uiso       1.00
      xx59          C  0.2292300  0.3064300  0.7639400    0.00000       Uiso       1.00
      xx60          H  0.0772400  0.2138400  0.6190600    0.00000       Uiso       1.00
      xx61          H  0.0156300  0.1539500  0.5700700    0.00000       Uiso       1.00
      xx62          H  0.2127200  0.3500400  0.7745200    0.00000       Uiso       1.00
      xx63          H  0.5309400  0.6087400  0.0192400    0.00000       Uiso       1.00
      xx64          C  0.9058700  0.8291501  0.6075000    0.00000       Uiso       1.00
      xx65          C  0.9408600  0.8639199  0.5786300    0.00000       Uiso       1.00
      xx66          C  0.7707700  0.6935700  0.7639400    0.00000       Uiso       1.00
      xx67          H  0.9227600  0.7861601  0.6190600    0.00000       Uiso       1.00
      xx68          H  0.9843699  0.8460500  0.5700700    0.00000       Uiso       1.00
      xx69          H  0.7872801  0.6499600  0.7745200    0.00000       Uiso       1.00
      xx70          H  0.4690600  0.3912600  0.0192400    0.00000       Uiso       1.00
      xx71          C  0.3291500  0.5941300  0.1075000    0.00000       Uiso       1.00
      xx72          C  0.3639200  0.5591400  0.0786300    0.00000       Uiso       1.00
      xx73          C  0.1935700  0.7292300  0.2639400    0.00000       Uiso       1.00
      xx74          H  0.2861600  0.5772400  0.1190600    0.00000       Uiso       1.00
      xx75          H  0.3460500  0.5156300  0.0700700    0.00000       Uiso       1.00
      xx76          H  0.1499600  0.7127200  0.2745200    0.00000       Uiso       1.00
      xx77          H  0.8912600  0.0309400  0.5192400    0.00000       Uiso       1.00
      xx78          C  0.6708500  0.4058700  0.1075000    0.00000       Uiso       1.00
      xx79          C  0.6360800  0.4408600  0.0786300    0.00000       Uiso       1.00
      xx80          C  0.8064299  0.2707700  0.2639400    0.00000       Uiso       1.00
      xx81          H  0.7138400  0.4227600  0.1190600    0.00000       Uiso       1.00
      xx82          H  0.6539500  0.4843700  0.0700700    0.00000       Uiso       1.00
      xx83          H  0.8500400  0.2872800  0.2745200    0.00000       Uiso       1.00
      xx84          H  0.1087400  0.9690600  0.5192400    0.00000       Uiso       1.00
      xx85          C  0.9058700  0.1708500  0.3925000    0.00000       Uiso       1.00
      xx86          C  0.9408600  0.1360800  0.4213700    0.00000       Uiso       1.00
      xx87          C  0.7707700  0.3064300  0.2360600    0.00000       Uiso       1.00
      xx88          H  0.9227600  0.2138400  0.3809400    0.00000       Uiso       1.00
      xx89          H  0.9843699  0.1539500  0.4299300    0.00000       Uiso       1.00
      xx90          H  0.7872801  0.3500400  0.2254800    0.00000       Uiso       1.00
      xx91          H  0.4690600  0.6087400  0.9807600    0.00000       Uiso       1.00
      xx92          C  0.0941300  0.8291501  0.3925000    0.00000       Uiso       1.00
      xx93          C  0.0591400  0.8639199  0.4213700    0.00000       Uiso       1.00
      xx94          C  0.2292300  0.6935700  0.2360600    0.00000       Uiso       1.00
      xx95          H  0.0772400  0.7861601  0.3809400    0.00000       Uiso       1.00
      xx96          H  0.0156300  0.8460500  0.4299300    0.00000       Uiso       1.00
      xx97          H  0.2127200  0.6499600  0.2254800    0.00000       Uiso       1.00
      xx98          H  0.5309400  0.3912600  0.9807600    0.00000       Uiso       1.00
      xx99          C  0.6708500  0.5941300  0.8925000    0.00000       Uiso       1.00
     xx100          C  0.6360800  0.5591400  0.9213700    0.00000       Uiso       1.00
     xx101          C  0.8064299  0.7292300  0.7360600    0.00000       Uiso       1.00
     xx102          H  0.7138400  0.5772400  0.8809400    0.00000       Uiso       1.00
     xx103          H  0.6539500  0.5156300  0.9299300    0.00000       Uiso       1.00
     xx104          H  0.8500400  0.7127200  0.7254800    0.00000       Uiso       1.00
     xx105          H  0.1087400  0.0309400  0.4807600    0.00000       Uiso       1.00
     xx106          C  0.3291500  0.4058700  0.8925000    0.00000       Uiso       1.00
     xx107          C  0.3639200  0.4408600  0.9213700    0.00000       Uiso       1.00
     xx108          C  0.1935700  0.2707700  0.7360600    0.00000       Uiso       1.00
     xx109          H  0.2861600  0.4227600  0.8809400    0.00000       Uiso       1.00
     xx110          H  0.3460500  0.4843700  0.9299300    0.00000       Uiso       1.00
     xx111          H  0.1499600  0.2872800  0.7254800    0.00000       Uiso       1.00
     xx112          H  0.8912600  0.9690600  0.4807600    0.00000       Uiso       1.00
     xx113          C  0.4201100  0.4201100  0.9376700    0.00000       Uiso       1.00
     xx114          N  0.3161800  0.3161800  0.8502100    0.00000       Uiso       1.00
     xx115          C  0.3211500  0.3211500  0.8054900    0.00000       Uiso       1.00
     xx116          H  0.3526400  0.3526400  0.7907000    0.00000       Uiso       1.00
     xx117          C  0.5798900  0.5798900  0.9376700    0.00000       Uiso       1.00
     xx118          N  0.6838200  0.6838200  0.8502100    0.00000       Uiso       1.00
     xx119          C  0.6788500  0.6788500  0.8054900    0.00000       Uiso       1.00
     xx120          H  0.6473600  0.6473600  0.7907000    0.00000       Uiso       1.00
     xx121          C  0.0798900  0.9201100  0.4376700    0.00000       Uiso       1.00
     xx122          N  0.1838200  0.8161800  0.3502100    0.00000       Uiso       1.00
     xx123          C  0.1788500  0.8211500  0.3054900    0.00000       Uiso       1.00
     xx124          H  0.1473600  0.8526400  0.2907000    0.00000       Uiso       1.00
     xx125          C  0.9201100  0.0798900  0.4376700    0.00000       Uiso       1.00
     xx126          N  0.8161800  0.1838200  0.3502100    0.00000       Uiso       1.00
     xx127          C  0.8211500  0.1788500  0.3054900    0.00000       Uiso       1.00
     xx128          H  0.8526400  0.1473600  0.2907000    0.00000       Uiso       1.00
     xx129          C  0.5798900  0.4201100  0.0623300    0.00000       Uiso       1.00
     xx130          N  0.6838200  0.3161800  0.1497900    0.00000       Uiso       1.00
     xx131          C  0.6788500  0.3211500  0.1945100    0.00000       Uiso       1.00
     xx132          H  0.6473600  0.3526400  0.2093000    0.00000       Uiso       1.00
     xx133          C  0.4201100  0.5798900  0.0623300    0.00000       Uiso       1.00
     xx134          N  0.3161800  0.6838200  0.1497900    0.00000       Uiso       1.00
     xx135          C  0.3211500  0.6788500  0.1945100    0.00000       Uiso       1.00
     xx136          H  0.3526400  0.6473600  0.2093000    0.00000       Uiso       1.00
     xx137          C  0.9201100  0.9201100  0.5623300    0.00000       Uiso       1.00
     xx138          N  0.8161800  0.8161800  0.6497900    0.00000       Uiso       1.00
     xx139          C  0.8211500  0.8211500  0.6945100    0.00000       Uiso       1.00
     xx140          H  0.8526400  0.8526400  0.7093000    0.00000       Uiso       1.00
     xx141          C  0.0798900  0.0798900  0.5623300    0.00000       Uiso       1.00
     xx142          N  0.1838200  0.1838200  0.6497900    0.00000       Uiso       1.00
     xx143          C  0.1788500  0.1788500  0.6945100    0.00000       Uiso       1.00
     xx144          H  0.1473600  0.1473600  0.7093000    0.00000       Uiso       1.00
     xx145          C  0.9595699  0.9595699  0.5312100    0.00000       Uiso       1.00
     xx146          C  0.6500800  0.6500800  0.8780900    0.00000       Uiso       1.00
     xx147          C  0.7857300  0.7857300  0.7219800    0.00000       Uiso       1.00
     xx148          C  0.0404300  0.0404300  0.5312100    0.00000       Uiso       1.00
     xx149          C  0.3499200  0.3499200  0.8780900    0.00000       Uiso       1.00
     xx150          C  0.2142700  0.2142700  0.7219800    0.00000       Uiso       1.00
     xx151          C  0.5404300  0.4595700  0.0312100    0.00000       Uiso       1.00
     xx152          C  0.8499200  0.1500800  0.3780900    0.00000       Uiso       1.00
     xx153          C  0.7142700  0.2857300  0.2219800    0.00000       Uiso       1.00
     xx154          C  0.4595700  0.5404300  0.0312100    0.00000       Uiso       1.00
     xx155          C  0.1500800  0.8499200  0.3780900    0.00000       Uiso       1.00
     xx156          C  0.2857300  0.7142700  0.2219800    0.00000       Uiso       1.00
     xx157          C  0.0404300  0.9595699  0.4687900    0.00000       Uiso       1.00
     xx158          C  0.3499200  0.6500800  0.1219100    0.00000       Uiso       1.00
     xx159          C  0.2142700  0.7857300  0.2780200    0.00000       Uiso       1.00
     xx160          C  0.9595699  0.0404300  0.4687900    0.00000       Uiso       1.00
     xx161          C  0.6500800  0.3499200  0.1219100    0.00000       Uiso       1.00
     xx162          C  0.7857300  0.2142700  0.2780200    0.00000       Uiso       1.00
     xx163          C  0.4595700  0.4595700  0.9687900    0.00000       Uiso       1.00
     xx164          C  0.1500800  0.1500800  0.6219100    0.00000       Uiso       1.00
     xx165          C  0.2857300  0.2857300  0.7780200    0.00000       Uiso       1.00
     xx166          C  0.5404300  0.5404300  0.9687900    0.00000       Uiso       1.00
     xx167          C  0.8499200  0.8499200  0.6219100    0.00000       Uiso       1.00
     xx168          C  0.7142700  0.7142700  0.7780200    0.00000       Uiso       1.00
     xx169          C  0.0000000  0.9204800  0.5000000    0.00000       Uiso       1.00
     xx170          C  0.0000000  0.0795200  0.5000000    0.00000       Uiso       1.00
     xx171          C  0.5795200  0.5000000  0.0000000    0.00000       Uiso       1.00
     xx172          C  0.4204800  0.5000000  0.0000000    0.00000       Uiso       1.00
     xx173          C  0.5000000  0.5795200  0.0000000    0.00000       Uiso       1.00
     xx174          C  0.5000000  0.4204800  0.0000000    0.00000       Uiso       1.00
     xx175          C  0.9204800  0.0000000  0.5000000    0.00000       Uiso       1.00
     xx176          C  0.0795200  0.0000000  0.5000000    0.00000       Uiso       1.00
     xx177          C  0.0000000  0.0000000  0.5603600    0.00000       Uiso       1.00
     xx178          C  0.5000000  0.5000000  0.0603600    0.00000       Uiso       1.00
     xx179          C  0.0000000  0.0000000  0.4396400    0.00000       Uiso       1.00
     xx180          C  0.5000000  0.5000000  0.9396400    0.00000       Uiso       1.00
     xx181          H  0.0285500  0.9714500  0.5823400    0.00000       Uiso       1.00
     xx182          H  0.9714500  0.0285500  0.5823400    0.00000       Uiso       1.00
     xx183          H  0.5285500  0.5285500  0.0823400    0.00000       Uiso       1.00
     xx184          H  0.4714500  0.4714500  0.0823400    0.00000       Uiso       1.00
     xx185          H  0.9714500  0.9714500  0.4176600    0.00000       Uiso       1.00
     xx186          H  0.0285500  0.0285500  0.4176600    0.00000       Uiso       1.00
     xx187          H  0.4714500  0.5285500  0.9176600    0.00000       Uiso       1.00
     xx188          H  0.5285500  0.4714500  0.9176600    0.00000       Uiso       1.00
