data_3D-Por-COF-0P
_audit_creation_date              0000-00-00
_audit_creation_method            'LanYouShi'
_symmetry_space_group_name_H-M    'P1'
_cell_length_a                    43.9031982
_cell_length_b                    23.5002995
_cell_length_c                    21.3780994
_cell_angle_alpha                 90.0000000
_cell_angle_beta                  90.0000000
_cell_angle_gamma                 90.0000000
loop_
_atom_site_label
_atom_site_type_symbol
_atom_site_fract_x
_atom_site_fract_y
_atom_site_fract_z
_atom_site_U_iso_or_equiv
_atom_site_adp_type
_atom_site_occupancy
        C1          C  0.0810600  0.6661900  0.4785800    0.00000       Uiso       1.00
        C2          C  0.1036400  0.6244400  0.4813600    0.00000       Uiso       1.00
        C3          C  0.1804800  0.4694100  0.4363100    0.00000       Uiso       1.00
        C4          C  0.2015200  0.4249000  0.4344000    0.00000       Uiso       1.00
        H5          H  0.9017900  0.7386100  0.6118000    0.00000       Uiso       1.00
        H6          H  0.8620800  0.6653000  0.6168500    0.00000       Uiso       1.00
        H7          H  0.8197400  0.4931800  0.5928600    0.00000       Uiso       1.00
        H8          H  0.7834800  0.4157800  0.5901400    0.00000       Uiso       1.00
        C9          C  0.3972300  0.3465100  0.1490600    0.00000       Uiso       1.00
       C10          C  0.3742900  0.3491000  0.1940600    0.00000       Uiso       1.00
       C11          C  0.2958700  0.3056400  0.3630500    0.00000       Uiso       1.00
       C12          C  0.2734900  0.3049300  0.4092800    0.00000       Uiso       1.00
       H13          H  0.5598900  0.4585900  0.1978300    0.00000       Uiso       1.00
       H14          H  0.6001500  0.4629000  0.2773600    0.00000       Uiso       1.00
       H15          H  0.7002300  0.4482800  0.3385100    0.00000       Uiso       1.00
       H16          H  0.7388200  0.4478800  0.4197300    0.00000       Uiso       1.00
       C17          C  0.3541800  0.3881500  0.6808600    0.00000       Uiso       1.00
       H18          H  0.3567300  0.4209600  0.6457200    0.00000       Uiso       1.00
       C19          C  0.0983700  0.0064200  0.5759900    0.00000       Uiso       1.00
       C20          C  0.1205100  0.0488700  0.5790100    0.00000       Uiso       1.00
       C21          C  0.1821200  0.2411400  0.5454900    0.00000       Uiso       1.00
       C22          C  0.2030000  0.2858500  0.5442000    0.00000       Uiso       1.00
       H23          H  0.9331999  0.0405600  0.4357300    0.00000       Uiso       1.00
       H24          H  0.8940200  0.1153100  0.4407100    0.00000       Uiso       1.00
       H25          H  0.8230100  0.2151800  0.3900400    0.00000       Uiso       1.00
       H26          H  0.7867200  0.2941200  0.3867900    0.00000       Uiso       1.00
       C27          C  0.4243300  0.4191000  0.7754499    0.00000       Uiso       1.00
       C28          C  0.4024600  0.4207200  0.7283300    0.00000       Uiso       1.00
       C29          C  0.2987100  0.4053900  0.6045300    0.00000       Uiso       1.00
       C30          C  0.2759100  0.4054400  0.5593000    0.00000       Uiso       1.00
       H31          H  0.6054600  0.3126100  0.8642800    0.00000       Uiso       1.00
       H32          H  0.6444000  0.3162600  0.7817400    0.00000       Uiso       1.00
       H33          H  0.6988300  0.2639400  0.6357900    0.00000       Uiso       1.00
       H34          H  0.7379099  0.2627500  0.5546000    0.00000       Uiso       1.00
       C35          C  0.3505300  0.3958100  0.2875500    0.00000       Uiso       1.00
       H36          H  0.3507100  0.4318700  0.3190900    0.00000       Uiso       1.00
       C37          C  0.0639500  0.8089699  0.5137400    0.00000       Uiso       1.00
       C38          C  0.0927700  0.8260800  0.4960500    0.00000       Uiso       1.00
       C39          C  0.0639500  0.9017900  0.5135000    0.00000       Uiso       1.00
       C40          C  0.0927700  0.8846601  0.4959700    0.00000       Uiso       1.00
       H41          H  0.1118400  0.7990300  0.4847700    0.00000       Uiso       1.00
       H42          H  0.1118400  0.9117199  0.4846400    0.00000       Uiso       1.00
       C43          C  0.5781900  0.4278600  0.1965700    0.00000       Uiso       1.00
       C44          C  0.6011300  0.4304400  0.2415400    0.00000       Uiso       1.00
       C45          C  0.7074400  0.4080200  0.3579100    0.00000       Uiso       1.00
       C46          C  0.7301600  0.4074600  0.4034500    0.00000       Uiso       1.00
       H47          H  0.3964600  0.3137900  0.1134400    0.00000       Uiso       1.00
       H48          H  0.3559900  0.3184000  0.1926200    0.00000       Uiso       1.00
       H49          H  0.3063900  0.2662800  0.3483200    0.00000       Uiso       1.00
       H50          H  0.2677000  0.2646000  0.4305600    0.00000       Uiso       1.00
       C51          C  0.9182101  0.0426600  0.4757500    0.00000       Uiso       1.00
       C52          C  0.8959599  0.0850100  0.4786000    0.00000       Uiso       1.00
       C53          C  0.8153600  0.2342900  0.4332100    0.00000       Uiso       1.00
       C54          C  0.7942900  0.2787900  0.4317900    0.00000       Uiso       1.00
       H55          H  0.0962200  0.9762300  0.6139800    0.00000       Uiso       1.00
       H56          H  0.1352600  0.0508500  0.6193800    0.00000       Uiso       1.00
       H57          H  0.1722500  0.2289400  0.5896700    0.00000       Uiso       1.00
       H58          H  0.2086300  0.3068700  0.5876500    0.00000       Uiso       1.00
       C59          C  0.8517800  0.5796200  0.5356000    0.00000       Uiso       1.00
       C60          C  0.5640500  0.3927600  0.0382200    0.00000       Uiso       1.00
       C61          C  0.5551500  0.3847000  0.1008500    0.00000       Uiso       1.00
       C62          C  0.5789900  0.3861900  0.1497400    0.00000       Uiso       1.00
       C63          C  0.6251800  0.3914200  0.2403900    0.00000       Uiso       1.00
       N64          N  0.6697700  0.3560500  0.2934000    0.00000       Uiso       1.00
       C65          C  0.6939900  0.3570300  0.3381000    0.00000       Uiso       1.00
       C66          C  0.7405701  0.3557300  0.4294300    0.00000       Uiso       1.00
       C67          C  0.4057600  0.4107500  0.0177900    0.00000       Uiso       1.00
       H68          H  0.3869300  0.4207400  0.9264100    0.00000       Uiso       1.00
       C69          C  0.0246100  0.7344401  0.5308300    0.00000       Uiso       1.00
       C70          C  0.0149500  0.6767400  0.5471400    0.00000       Uiso       1.00
       C71          C  0.0789300  0.7075600  0.5255700    0.00000       Uiso       1.00
       C72          C  0.1243800  0.6235800  0.5312000    0.00000       Uiso       1.00
       N73          N  0.1514700  0.5413600  0.4922300    0.00000       Uiso       1.00
       C74          C  0.1733700  0.4961000  0.4926700    0.00000       Uiso       1.00
       C75          C  0.2165600  0.4066800  0.4890400    0.00000       Uiso       1.00
       C76          C  0.9450000  0.7518100  0.5231000    0.00000       Uiso       1.00
       H77          H  0.0292400  0.6405900  0.5578100    0.00000       Uiso       1.00
       H78          H  0.8366600  0.5807900  0.5753600    0.00000       Uiso       1.00
       C79          C  0.6032200  0.3431100  0.8266200    0.00000       Uiso       1.00
       C80          C  0.6252500  0.3450500  0.7796400    0.00000       Uiso       1.00
       C81          C  0.7062000  0.3035700  0.6150400    0.00000       Uiso       1.00
       C82          C  0.7288900  0.3033700  0.5693800    0.00000       Uiso       1.00
       H83          H  0.4434200  0.4480700  0.7734900    0.00000       Uiso       1.00
       H84          H  0.4050300  0.4506900  0.6903100    0.00000       Uiso       1.00
       H85          H  0.3089300  0.4453800  0.6178200    0.00000       Uiso       1.00
       H86          H  0.2700600  0.4454000  0.5372600    0.00000       Uiso       1.00
       C87          C  0.9003400  0.7068900  0.5751900    0.00000       Uiso       1.00
       C88          C  0.8778000  0.6651800  0.5780100    0.00000       Uiso       1.00
       C89          C  0.8133200  0.4759800  0.5480100    0.00000       Uiso       1.00
       C90          C  0.7923301  0.4314500  0.5462800    0.00000       Uiso       1.00
       H91          H  0.0652200  0.6664000  0.4399000    0.00000       Uiso       1.00
       H92          H  0.1049300  0.5926900  0.4448100    0.00000       Uiso       1.00
       H93          H  0.1694900  0.4833300  0.3938100    0.00000       Uiso       1.00
       H94          H  0.2060400  0.4044600  0.3900700    0.00000       Uiso       1.00
       C95          C  0.8532500  0.1335900  0.5351700    0.00000       Uiso       1.00
       C96          C  0.5640300  0.3902800  0.9369400    0.00000       Uiso       1.00
       C97          C  0.5550400  0.3792000  0.8749400    0.00000       Uiso       1.00
       C98          C  0.5784000  0.3804600  0.8250500    0.00000       Uiso       1.00
       C99          C  0.6226200  0.3841500  0.7302800    0.00000       Uiso       1.00
      N100          N  0.6682300  0.3523100  0.6780800    0.00000       Uiso       1.00
      C101          C  0.6919700  0.3542100  0.6322800    0.00000       Uiso       1.00
      C102          C  0.7390300  0.3546700  0.5419700    0.00000       Uiso       1.00
      C103          C  0.4057900  0.4093400  0.9561900    0.00000       Uiso       1.00
      H104          H  0.3868800  0.4234700  0.0468600    0.00000       Uiso       1.00
      C105          C  0.0245900  0.9764100  0.5298600    0.00000       Uiso       1.00
      C106          C  0.0149500  0.0343700  0.5450800    0.00000       Uiso       1.00
      C107          C  0.0788200  0.0032800  0.5245300    0.00000       Uiso       1.00
      C108          C  0.1235200  0.0885700  0.5304300    0.00000       Uiso       1.00
      N109          N  0.1517800  0.1683400  0.4890600    0.00000       Uiso       1.00
      C110          C  0.1733100  0.2141700  0.4899000    0.00000       Uiso       1.00
      C111          C  0.2164400  0.3036400  0.4876400    0.00000       Uiso       1.00
      C112          C  0.9450300  0.9589600  0.5223800    0.00000       Uiso       1.00
      H113          H  0.0292400  0.0707000  0.5549200    0.00000       Uiso       1.00
      H114          H  0.8399300  0.1361400  0.5775600    0.00000       Uiso       1.00
      C115          C  0.2382500  0.3550900  0.4869400    0.00000       Uiso       1.00
      C116          C  0.0466800  0.8554001  0.5244100    0.00000       Uiso       1.00
      H117          H  0.0251100  0.8554300  0.5434600    0.00000       Uiso       1.00
      N118          N  0.5467400  0.3807500  0.9879200    0.00000       Uiso       1.00
      C119          C  0.5247300  0.3753300  0.1190800    0.00000       Uiso       1.00
      C120          C  0.5156200  0.3572300  0.1777200    0.00000       Uiso       1.00
      C121          C  0.5247000  0.3676500  0.8579700    0.00000       Uiso       1.00
      C122          C  0.5156000  0.3455600  0.8009900    0.00000       Uiso       1.00
      H123          H  0.5300300  0.3314200  0.7631900    0.00000       Uiso       1.00
      H124          H  0.5300400  0.3454800  0.2165000    0.00000       Uiso       1.00
      C125          C  0.4218100  0.4278600  0.1965700    0.00000       Uiso       1.00
      C126          C  0.3988700  0.4304400  0.2415400    0.00000       Uiso       1.00
      C127          C  0.2925600  0.4080200  0.3579100    0.00000       Uiso       1.00
      C128          C  0.2698400  0.4074600  0.4034500    0.00000       Uiso       1.00
      H129          H  0.6035400  0.3137900  0.1134400    0.00000       Uiso       1.00
      H130          H  0.6440100  0.3184000  0.1926200    0.00000       Uiso       1.00
      H131          H  0.6936100  0.2662800  0.3483200    0.00000       Uiso       1.00
      H132          H  0.7323000  0.2646000  0.4305600    0.00000       Uiso       1.00
      C133          C  0.0817900  0.0426600  0.4757500    0.00000       Uiso       1.00
      C134          C  0.1040400  0.0850100  0.4786000    0.00000       Uiso       1.00
      C135          C  0.1846400  0.2342900  0.4332100    0.00000       Uiso       1.00
      C136          C  0.2057100  0.2787900  0.4317900    0.00000       Uiso       1.00
      H137          H  0.9037800  0.9762300  0.6139800    0.00000       Uiso       1.00
      H138          H  0.8647400  0.0508500  0.6193800    0.00000       Uiso       1.00
      H139          H  0.8277500  0.2289400  0.5896700    0.00000       Uiso       1.00
      H140          H  0.7913699  0.3068700  0.5876500    0.00000       Uiso       1.00
      C141          C  0.1482200  0.5796200  0.5356000    0.00000       Uiso       1.00
      C142          C  0.4359500  0.3927600  0.0382200    0.00000       Uiso       1.00
      C143          C  0.4448500  0.3847000  0.1008500    0.00000       Uiso       1.00
      C144          C  0.4210100  0.3861900  0.1497400    0.00000       Uiso       1.00
      C145          C  0.3748200  0.3914200  0.2403900    0.00000       Uiso       1.00
      N146          N  0.3302300  0.3560500  0.2934000    0.00000       Uiso       1.00
      C147          C  0.3060100  0.3570300  0.3381000    0.00000       Uiso       1.00
      C148          C  0.2594300  0.3557300  0.4294300    0.00000       Uiso       1.00
      C149          C  0.5942400  0.4107500  0.0177900    0.00000       Uiso       1.00
      H150          H  0.6130700  0.4207400  0.9264100    0.00000       Uiso       1.00
      C151          C  0.9753900  0.7344401  0.5308300    0.00000       Uiso       1.00
      C152          C  0.9850500  0.6767400  0.5471400    0.00000       Uiso       1.00
      C153          C  0.9210700  0.7075600  0.5255700    0.00000       Uiso       1.00
      C154          C  0.8756201  0.6235800  0.5312000    0.00000       Uiso       1.00
      N155          N  0.8485300  0.5413600  0.4922300    0.00000       Uiso       1.00
      C156          C  0.8266301  0.4961000  0.4926700    0.00000       Uiso       1.00
      C157          C  0.7834401  0.4066800  0.4890400    0.00000       Uiso       1.00
      C158          C  0.0550000  0.7518100  0.5231000    0.00000       Uiso       1.00
      H159          H  0.9707600  0.6405900  0.5578100    0.00000       Uiso       1.00
      H160          H  0.1633400  0.5807900  0.5753600    0.00000       Uiso       1.00
      C161          C  0.3967800  0.3431100  0.8266200    0.00000       Uiso       1.00
      C162          C  0.3747500  0.3450500  0.7796400    0.00000       Uiso       1.00
      C163          C  0.2938000  0.3035700  0.6150400    0.00000       Uiso       1.00
      C164          C  0.2711100  0.3033700  0.5693800    0.00000       Uiso       1.00
      H165          H  0.5565800  0.4480700  0.7734900    0.00000       Uiso       1.00
      H166          H  0.5949700  0.4506900  0.6903100    0.00000       Uiso       1.00
      H167          H  0.6910700  0.4453800  0.6178200    0.00000       Uiso       1.00
      H168          H  0.7299400  0.4454000  0.5372600    0.00000       Uiso       1.00
      C169          C  0.0996600  0.7068900  0.5751900    0.00000       Uiso       1.00
      C170          C  0.1222000  0.6651800  0.5780100    0.00000       Uiso       1.00
      C171          C  0.1866800  0.4759800  0.5480100    0.00000       Uiso       1.00
      C172          C  0.2076700  0.4314500  0.5462800    0.00000       Uiso       1.00
      H173          H  0.9347801  0.6664000  0.4399000    0.00000       Uiso       1.00
      H174          H  0.8950700  0.5926900  0.4448100    0.00000       Uiso       1.00
      H175          H  0.8305101  0.4833300  0.3938100    0.00000       Uiso       1.00
      H176          H  0.7939600  0.4044600  0.3900700    0.00000       Uiso       1.00
      C177          C  0.1467500  0.1335900  0.5351700    0.00000       Uiso       1.00
      C178          C  0.4359700  0.3902800  0.9369400    0.00000       Uiso       1.00
      C179          C  0.4449600  0.3792000  0.8749400    0.00000       Uiso       1.00
      C180          C  0.4216000  0.3804600  0.8250500    0.00000       Uiso       1.00
      C181          C  0.3773800  0.3841500  0.7302800    0.00000       Uiso       1.00
      N182          N  0.3317700  0.3523100  0.6780800    0.00000       Uiso       1.00
      C183          C  0.3080300  0.3542100  0.6322800    0.00000       Uiso       1.00
      C184          C  0.2609700  0.3546700  0.5419700    0.00000       Uiso       1.00
      C185          C  0.5942100  0.4093400  0.9561900    0.00000       Uiso       1.00
      H186          H  0.6131200  0.4234700  0.0468600    0.00000       Uiso       1.00
      C187          C  0.9754099  0.9764100  0.5298600    0.00000       Uiso       1.00
      C188          C  0.9850500  0.0343700  0.5450800    0.00000       Uiso       1.00
      C189          C  0.9211800  0.0032800  0.5245300    0.00000       Uiso       1.00
      C190          C  0.8764800  0.0885700  0.5304300    0.00000       Uiso       1.00
      N191          N  0.8482200  0.1683400  0.4890600    0.00000       Uiso       1.00
      C192          C  0.8266900  0.2141700  0.4899000    0.00000       Uiso       1.00
      C193          C  0.7835599  0.3036400  0.4876400    0.00000       Uiso       1.00
      C194          C  0.0549700  0.9589600  0.5223800    0.00000       Uiso       1.00
      H195          H  0.9707600  0.0707000  0.5549200    0.00000       Uiso       1.00
      H196          H  0.1600700  0.1361400  0.5775600    0.00000       Uiso       1.00
      C197          C  0.7617500  0.3550900  0.4869400    0.00000       Uiso       1.00
      C198          C  0.9533200  0.8554001  0.5244100    0.00000       Uiso       1.00
      H199          H  0.9748900  0.8554300  0.5434600    0.00000       Uiso       1.00
      N200          N  0.4532600  0.3807500  0.9879200    0.00000       Uiso       1.00
      C201          C  0.4752700  0.3753300  0.1190800    0.00000       Uiso       1.00
      C202          C  0.4843800  0.3572300  0.1777200    0.00000       Uiso       1.00
      C203          C  0.4753000  0.3676500  0.8579700    0.00000       Uiso       1.00
      C204          C  0.4844000  0.3455600  0.8009900    0.00000       Uiso       1.00
      H205          H  0.4699700  0.3314200  0.7631900    0.00000       Uiso       1.00
      H206          H  0.4699600  0.3454800  0.2165000    0.00000       Uiso       1.00
      C207          C  0.9189400  0.6661900  0.4785800    0.00000       Uiso       1.00
      C208          C  0.8963600  0.6244400  0.4813600    0.00000       Uiso       1.00
      C209          C  0.8195200  0.4694100  0.4363100    0.00000       Uiso       1.00
      C210          C  0.7984800  0.4249000  0.4344000    0.00000       Uiso       1.00
      H211          H  0.0982100  0.7386100  0.6118000    0.00000       Uiso       1.00
      H212          H  0.1379200  0.6653000  0.6168500    0.00000       Uiso       1.00
      H213          H  0.1802600  0.4931800  0.5928600    0.00000       Uiso       1.00
      H214          H  0.2165200  0.4157800  0.5901400    0.00000       Uiso       1.00
      C215          C  0.6027700  0.3465100  0.1490600    0.00000       Uiso       1.00
      C216          C  0.6257100  0.3491000  0.1940600    0.00000       Uiso       1.00
      C217          C  0.7041300  0.3056400  0.3630500    0.00000       Uiso       1.00
      C218          C  0.7265100  0.3049300  0.4092800    0.00000       Uiso       1.00
      H219          H  0.4401100  0.4585900  0.1978300    0.00000       Uiso       1.00
      H220          H  0.3998500  0.4629000  0.2773600    0.00000       Uiso       1.00
      H221          H  0.2997700  0.4482800  0.3385100    0.00000       Uiso       1.00
      H222          H  0.2611800  0.4478800  0.4197300    0.00000       Uiso       1.00
      C223          C  0.6458200  0.3881500  0.6808600    0.00000       Uiso       1.00
      H224          H  0.6432700  0.4209600  0.6457200    0.00000       Uiso       1.00
      C225          C  0.9016299  0.0064200  0.5759900    0.00000       Uiso       1.00
      C226          C  0.8794900  0.0488700  0.5790100    0.00000       Uiso       1.00
      C227          C  0.8178800  0.2411400  0.5454900    0.00000       Uiso       1.00
      C228          C  0.7970000  0.2858500  0.5442000    0.00000       Uiso       1.00
      H229          H  0.0668000  0.0405600  0.4357300    0.00000       Uiso       1.00
      H230          H  0.1059800  0.1153100  0.4407100    0.00000       Uiso       1.00
      H231          H  0.1769900  0.2151800  0.3900400    0.00000       Uiso       1.00
      H232          H  0.2132800  0.2941200  0.3867900    0.00000       Uiso       1.00
      C233          C  0.5756700  0.4191000  0.7754499    0.00000       Uiso       1.00
      C234          C  0.5975400  0.4207200  0.7283300    0.00000       Uiso       1.00
      C235          C  0.7012900  0.4053900  0.6045300    0.00000       Uiso       1.00
      C236          C  0.7240900  0.4054400  0.5593000    0.00000       Uiso       1.00
      H237          H  0.3945400  0.3126100  0.8642800    0.00000       Uiso       1.00
      H238          H  0.3556000  0.3162600  0.7817400    0.00000       Uiso       1.00
      H239          H  0.3011700  0.2639400  0.6357900    0.00000       Uiso       1.00
      H240          H  0.2620900  0.2627500  0.5546000    0.00000       Uiso       1.00
      C241          C  0.6494700  0.3958100  0.2875500    0.00000       Uiso       1.00
      H242          H  0.6492900  0.4318700  0.3190900    0.00000       Uiso       1.00
      C243          C  0.9360500  0.8089699  0.5137400    0.00000       Uiso       1.00
      C244          C  0.9072300  0.8260800  0.4960500    0.00000       Uiso       1.00
      C245          C  0.9360500  0.9017900  0.5135000    0.00000       Uiso       1.00
      C246          C  0.9072300  0.8846601  0.4959700    0.00000       Uiso       1.00
      H247          H  0.8881600  0.7990300  0.4847700    0.00000       Uiso       1.00
      H248          H  0.8881600  0.9117199  0.4846400    0.00000       Uiso       1.00
      C249          C  0.5000000  0.3808200  0.8922500    0.00000       Uiso       1.00
      H250          H  0.5000000  0.4027600  0.9343000    0.00000       Uiso       1.00
      C251          C  0.5000000  0.3863100  0.0839200    0.00000       Uiso       1.00
      H252          H  0.5000000  0.4048900  0.0399800    0.00000       Uiso       1.00
      N253          N  0.0000000  0.7675100  0.5211200    0.00000       Uiso       1.00
      N254          N  0.0000000  0.9432000  0.5207300    0.00000       Uiso       1.00
