data_COF-DL229_4
_audit_creation_date              0000-00-00
_audit_creation_method            'LanYouShi'
_symmetry_space_group_name_H-M    'P1'
_cell_length_a                    31.8099995
_cell_length_b                    31.8099995
_cell_length_c                    49.8400002
_cell_angle_alpha                 90.0000000
_cell_angle_beta                  90.0000000
_cell_angle_gamma                 90.0000000
loop_
_atom_site_label
_atom_site_type_symbol
_atom_site_fract_x
_atom_site_fract_y
_atom_site_fract_z
_atom_site_U_iso_or_equiv
_atom_site_adp_type
_atom_site_occupancy
       xx1          C  0.4187100  0.8428700  0.7767799    0.00000       Uiso       1.00
       xx2          C  0.4509100  0.8760700  0.8334000    0.00000       Uiso       1.00
       xx3          C  0.2617500  0.6921500  0.4710000    0.00000       Uiso       1.00
       xx4          H  0.4361800  0.7980900  0.7528900    0.00000       Uiso       1.00
       xx5          H  0.4958500  0.8596000  0.8582900    0.00000       Uiso       1.00
       xx6          H  0.2771800  0.6457600  0.4515200    0.00000       Uiso       1.00
       xx7          H  0.9677600  0.4018300  0.9614300    0.00000       Uiso       1.00
       xx8          C  0.5812900  0.1571300  0.7767799    0.00000       Uiso       1.00
       xx9          C  0.5490900  0.1239300  0.8334000    0.00000       Uiso       1.00
      xx10          C  0.7382500  0.3078500  0.4710000    0.00000       Uiso       1.00
      xx11          H  0.5638200  0.2019100  0.7528900    0.00000       Uiso       1.00
      xx12          H  0.5041500  0.1404000  0.8582900    0.00000       Uiso       1.00
      xx13          H  0.7228200  0.3542400  0.4515200    0.00000       Uiso       1.00
      xx14          H  0.0322400  0.5981700  0.9614300    0.00000       Uiso       1.00
      xx15          C  0.1571300  0.4187100  0.7767799    0.00000       Uiso       1.00
      xx16          C  0.1239300  0.4509100  0.8334000    0.00000       Uiso       1.00
      xx17          C  0.3078500  0.2617500  0.4710000    0.00000       Uiso       1.00
      xx18          H  0.2019100  0.4361800  0.7528900    0.00000       Uiso       1.00
      xx19          H  0.1404000  0.4958500  0.8582900    0.00000       Uiso       1.00
      xx20          H  0.3542400  0.2771800  0.4515200    0.00000       Uiso       1.00
      xx21          H  0.5981700  0.9677600  0.9614300    0.00000       Uiso       1.00
      xx22          C  0.8428700  0.5812900  0.7767799    0.00000       Uiso       1.00
      xx23          C  0.8760700  0.5490900  0.8334000    0.00000       Uiso       1.00
      xx24          C  0.6921500  0.7382500  0.4710000    0.00000       Uiso       1.00
      xx25          H  0.7980900  0.5638200  0.7528900    0.00000       Uiso       1.00
      xx26          H  0.8596000  0.5041500  0.8582900    0.00000       Uiso       1.00
      xx27          H  0.6457600  0.7228200  0.4515200    0.00000       Uiso       1.00
      xx28          H  0.4018300  0.0322400  0.9614300    0.00000       Uiso       1.00
      xx29          C  0.5812900  0.8428700  0.2232200    0.00000       Uiso       1.00
      xx30          C  0.5490900  0.8760700  0.1666000    0.00000       Uiso       1.00
      xx31          C  0.7382500  0.6921500  0.5290000    0.00000       Uiso       1.00
      xx32          H  0.5638200  0.7980900  0.2471100    0.00000       Uiso       1.00
      xx33          H  0.5041500  0.8596000  0.1417100    0.00000       Uiso       1.00
      xx34          H  0.7228200  0.6457600  0.5484800    0.00000       Uiso       1.00
      xx35          H  0.0322400  0.4018300  0.0385700    0.00000       Uiso       1.00
      xx36          C  0.4187100  0.1571300  0.2232200    0.00000       Uiso       1.00
      xx37          C  0.4509100  0.1239300  0.1666000    0.00000       Uiso       1.00
      xx38          C  0.2617500  0.3078500  0.5290000    0.00000       Uiso       1.00
      xx39          H  0.4361800  0.2019100  0.2471100    0.00000       Uiso       1.00
      xx40          H  0.4958500  0.1404000  0.1417100    0.00000       Uiso       1.00
      xx41          H  0.2771800  0.3542400  0.5484800    0.00000       Uiso       1.00
      xx42          H  0.9677600  0.5981700  0.0385700    0.00000       Uiso       1.00
      xx43          C  0.8428700  0.4187100  0.2232200    0.00000       Uiso       1.00
      xx44          C  0.8760700  0.4509100  0.1666000    0.00000       Uiso       1.00
      xx45          C  0.6921500  0.2617500  0.5290000    0.00000       Uiso       1.00
      xx46          H  0.7980900  0.4361800  0.2471100    0.00000       Uiso       1.00
      xx47          H  0.8596000  0.4958500  0.1417100    0.00000       Uiso       1.00
      xx48          H  0.6457600  0.2771800  0.5484800    0.00000       Uiso       1.00
      xx49          H  0.4018300  0.9677600  0.0385700    0.00000       Uiso       1.00
      xx50          C  0.1571300  0.5812900  0.2232200    0.00000       Uiso       1.00
      xx51          C  0.1239300  0.5490900  0.1666000    0.00000       Uiso       1.00
      xx52          C  0.3078500  0.7382500  0.5290000    0.00000       Uiso       1.00
      xx53          H  0.2019100  0.5638200  0.2471100    0.00000       Uiso       1.00
      xx54          H  0.1404000  0.5041500  0.1417100    0.00000       Uiso       1.00
      xx55          H  0.3542400  0.7228200  0.5484800    0.00000       Uiso       1.00
      xx56          H  0.5981700  0.0322400  0.0385700    0.00000       Uiso       1.00
      xx57          C  0.0812900  0.6571300  0.2232200    0.00000       Uiso       1.00
      xx58          C  0.0490900  0.6239300  0.1666000    0.00000       Uiso       1.00
      xx59          C  0.2382500  0.8078500  0.5290000    0.00000       Uiso       1.00
      xx60          H  0.0638200  0.7019100  0.2471100    0.00000       Uiso       1.00
      xx61          H  0.0041500  0.6404000  0.1417100    0.00000       Uiso       1.00
      xx62          H  0.2228200  0.8542400  0.5484800    0.00000       Uiso       1.00
      xx63          H  0.5322400  0.0981700  0.0385700    0.00000       Uiso       1.00
      xx64          C  0.9187100  0.3428700  0.2232200    0.00000       Uiso       1.00
      xx65          C  0.9509100  0.3760700  0.1666000    0.00000       Uiso       1.00
      xx66          C  0.7617500  0.1921500  0.5290000    0.00000       Uiso       1.00
      xx67          H  0.9361800  0.2980900  0.2471100    0.00000       Uiso       1.00
      xx68          H  0.9958500  0.3596000  0.1417100    0.00000       Uiso       1.00
      xx69          H  0.7771800  0.1457600  0.5484800    0.00000       Uiso       1.00
      xx70          H  0.4677600  0.9018300  0.0385700    0.00000       Uiso       1.00
      xx71          C  0.3428700  0.0812900  0.2232200    0.00000       Uiso       1.00
      xx72          C  0.3760700  0.0490900  0.1666000    0.00000       Uiso       1.00
      xx73          C  0.1921500  0.2382500  0.5290000    0.00000       Uiso       1.00
      xx74          H  0.2980900  0.0638200  0.2471100    0.00000       Uiso       1.00
      xx75          H  0.3596000  0.0041500  0.1417100    0.00000       Uiso       1.00
      xx76          H  0.1457600  0.2228200  0.5484800    0.00000       Uiso       1.00
      xx77          H  0.9018300  0.5322400  0.0385700    0.00000       Uiso       1.00
      xx78          C  0.6571300  0.9187100  0.2232200    0.00000       Uiso       1.00
      xx79          C  0.6239300  0.9509100  0.1666000    0.00000       Uiso       1.00
      xx80          C  0.8078500  0.7617500  0.5290000    0.00000       Uiso       1.00
      xx81          H  0.7019100  0.9361800  0.2471100    0.00000       Uiso       1.00
      xx82          H  0.6404000  0.9958500  0.1417100    0.00000       Uiso       1.00
      xx83          H  0.8542400  0.7771800  0.5484800    0.00000       Uiso       1.00
      xx84          H  0.0981700  0.4677600  0.0385700    0.00000       Uiso       1.00
      xx85          C  0.9187100  0.6571300  0.7767799    0.00000       Uiso       1.00
      xx86          C  0.9509100  0.6239300  0.8334000    0.00000       Uiso       1.00
      xx87          C  0.7617500  0.8078500  0.4710000    0.00000       Uiso       1.00
      xx88          H  0.9361800  0.7019100  0.7528900    0.00000       Uiso       1.00
      xx89          H  0.9958500  0.6404000  0.8582900    0.00000       Uiso       1.00
      xx90          H  0.7771800  0.8542400  0.4515200    0.00000       Uiso       1.00
      xx91          H  0.4677600  0.0981700  0.9614300    0.00000       Uiso       1.00
      xx92          C  0.0812900  0.3428700  0.7767799    0.00000       Uiso       1.00
      xx93          C  0.0490900  0.3760700  0.8334000    0.00000       Uiso       1.00
      xx94          C  0.2382500  0.1921500  0.4710000    0.00000       Uiso       1.00
      xx95          H  0.0638200  0.2980900  0.7528900    0.00000       Uiso       1.00
      xx96          H  0.0041500  0.3596000  0.8582900    0.00000       Uiso       1.00
      xx97          H  0.2228200  0.1457600  0.4515200    0.00000       Uiso       1.00
      xx98          H  0.5322400  0.9018300  0.9614300    0.00000       Uiso       1.00
      xx99          C  0.6571300  0.0812900  0.7767799    0.00000       Uiso       1.00
     xx100          C  0.6239300  0.0490900  0.8334000    0.00000       Uiso       1.00
     xx101          C  0.8078500  0.2382500  0.4710000    0.00000       Uiso       1.00
     xx102          H  0.7019100  0.0638200  0.7528900    0.00000       Uiso       1.00
     xx103          H  0.6404000  0.0041500  0.8582900    0.00000       Uiso       1.00
     xx104          H  0.8542400  0.2228200  0.4515200    0.00000       Uiso       1.00
     xx105          H  0.0981700  0.5322400  0.9614300    0.00000       Uiso       1.00
     xx106          C  0.3428700  0.9187100  0.7767799    0.00000       Uiso       1.00
     xx107          C  0.3760700  0.9509100  0.8334000    0.00000       Uiso       1.00
     xx108          C  0.1921500  0.7617500  0.4710000    0.00000       Uiso       1.00
     xx109          H  0.2980900  0.9361800  0.7528900    0.00000       Uiso       1.00
     xx110          H  0.3596000  0.9958500  0.8582900    0.00000       Uiso       1.00
     xx111          H  0.1457600  0.7771800  0.4515200    0.00000       Uiso       1.00
     xx112          H  0.9018300  0.4677600  0.9614300    0.00000       Uiso       1.00
     xx113          C  0.4312000  0.9312000  0.8637800    0.00000       Uiso       1.00
     xx114          N  0.3315100  0.8315100  0.6888700    0.00000       Uiso       1.00
     xx115          C  0.3235000  0.8235000  0.5868800    0.00000       Uiso       1.00
     xx116          H  0.3509400  0.8509400  0.5368700    0.00000       Uiso       1.00
     xx117          C  0.9650100  0.4650100  0.0701500    0.00000       Uiso       1.00
     xx118          C  0.6366400  0.1366400  0.7468700    0.00000       Uiso       1.00
     xx119          C  0.7863700  0.2863700  0.4542400    0.00000       Uiso       1.00
     xx120          C  0.5688000  0.0688000  0.8637800    0.00000       Uiso       1.00
     xx121          N  0.6684900  0.1684900  0.6888700    0.00000       Uiso       1.00
     xx122          C  0.6765000  0.1765000  0.5868800    0.00000       Uiso       1.00
     xx123          H  0.6490600  0.1490600  0.5368700    0.00000       Uiso       1.00
     xx124          C  0.0349900  0.5349900  0.0701500    0.00000       Uiso       1.00
     xx125          C  0.3633600  0.8633600  0.7468700    0.00000       Uiso       1.00
     xx126          C  0.2136300  0.7136300  0.4542400    0.00000       Uiso       1.00
     xx127          C  0.0688000  0.4312000  0.8637800    0.00000       Uiso       1.00
     xx128          N  0.1684900  0.3315100  0.6888700    0.00000       Uiso       1.00
     xx129          C  0.1765000  0.3235000  0.5868800    0.00000       Uiso       1.00
     xx130          H  0.1490600  0.3509400  0.5368700    0.00000       Uiso       1.00
     xx131          C  0.5349900  0.9650100  0.0701500    0.00000       Uiso       1.00
     xx132          C  0.8633600  0.6366400  0.7468700    0.00000       Uiso       1.00
     xx133          C  0.7136300  0.7863700  0.4542400    0.00000       Uiso       1.00
     xx134          C  0.9312000  0.5688000  0.8637800    0.00000       Uiso       1.00
     xx135          N  0.8315100  0.6684900  0.6888700    0.00000       Uiso       1.00
     xx136          C  0.8235000  0.6765000  0.5868800    0.00000       Uiso       1.00
     xx137          H  0.8509400  0.6490600  0.5368700    0.00000       Uiso       1.00
     xx138          C  0.4650100  0.0349900  0.0701500    0.00000       Uiso       1.00
     xx139          C  0.1366400  0.3633600  0.7468700    0.00000       Uiso       1.00
     xx140          C  0.2863700  0.2136300  0.4542400    0.00000       Uiso       1.00
     xx141          C  0.5688000  0.9312000  0.1362200    0.00000       Uiso       1.00
     xx142          N  0.6684900  0.8315100  0.3111300    0.00000       Uiso       1.00
     xx143          C  0.6765000  0.8235000  0.4131200    0.00000       Uiso       1.00
     xx144          H  0.6490600  0.8509400  0.4631300    0.00000       Uiso       1.00
     xx145          C  0.0349900  0.4650100  0.9298500    0.00000       Uiso       1.00
     xx146          C  0.3633600  0.1366400  0.2531300    0.00000       Uiso       1.00
     xx147          C  0.2136300  0.2863700  0.5457600    0.00000       Uiso       1.00
     xx148          C  0.4312000  0.0688000  0.1362200    0.00000       Uiso       1.00
     xx149          N  0.3315100  0.1684900  0.3111300    0.00000       Uiso       1.00
     xx150          C  0.3235000  0.1765000  0.4131200    0.00000       Uiso       1.00
     xx151          H  0.3509400  0.1490600  0.4631300    0.00000       Uiso       1.00
     xx152          C  0.9650100  0.5349900  0.9298500    0.00000       Uiso       1.00
     xx153          C  0.6366400  0.8633600  0.2531300    0.00000       Uiso       1.00
     xx154          C  0.7863700  0.7136300  0.5457600    0.00000       Uiso       1.00
     xx155          C  0.9312000  0.4312000  0.1362200    0.00000       Uiso       1.00
     xx156          N  0.8315100  0.3315100  0.3111300    0.00000       Uiso       1.00
     xx157          C  0.8235000  0.3235000  0.4131200    0.00000       Uiso       1.00
     xx158          H  0.8509400  0.3509400  0.4631300    0.00000       Uiso       1.00
     xx159          C  0.4650100  0.9650100  0.9298500    0.00000       Uiso       1.00
     xx160          C  0.1366400  0.6366400  0.2531300    0.00000       Uiso       1.00
     xx161          C  0.2863700  0.7863700  0.5457600    0.00000       Uiso       1.00
     xx162          C  0.0688000  0.5688000  0.1362200    0.00000       Uiso       1.00
     xx163          N  0.1684900  0.6684900  0.3111300    0.00000       Uiso       1.00
     xx164          C  0.1765000  0.6765000  0.4131200    0.00000       Uiso       1.00
     xx165          H  0.1490600  0.6490600  0.4631300    0.00000       Uiso       1.00
     xx166          C  0.5349900  0.0349900  0.9298500    0.00000       Uiso       1.00
     xx167          C  0.8633600  0.3633600  0.2531300    0.00000       Uiso       1.00
     xx168          C  0.7136300  0.2136300  0.5457600    0.00000       Uiso       1.00
     xx169          C  0.0000000  0.4315700  0.0000000    0.00000       Uiso       1.00
     xx170          C  0.0000000  0.5684300  0.0000000    0.00000       Uiso       1.00
     xx171          C  0.5684300  0.0000000  0.0000000    0.00000       Uiso       1.00
     xx172          C  0.4315700  0.0000000  0.0000000    0.00000       Uiso       1.00
     xx173          C  0.5000000  0.0684300  0.0000000    0.00000       Uiso       1.00
     xx174          C  0.5000000  0.9315700  0.0000000    0.00000       Uiso       1.00
     xx175          C  0.9315700  0.5000000  0.0000000    0.00000       Uiso       1.00
     xx176          C  0.0684300  0.5000000  0.0000000    0.00000       Uiso       1.00
     xx177          C  0.0000000  0.5000000  0.1320100    0.00000       Uiso       1.00
     xx178          C  0.5000000  0.0000000  0.1320100    0.00000       Uiso       1.00
     xx179          C  0.0000000  0.5000000  0.8679900    0.00000       Uiso       1.00
     xx180          C  0.5000000  0.0000000  0.8679900    0.00000       Uiso       1.00
     xx181          H  0.0293500  0.4706500  0.1764800    0.00000       Uiso       1.00
     xx182          H  0.9706500  0.5293500  0.1764800    0.00000       Uiso       1.00
     xx183          H  0.5293500  0.0293500  0.1764800    0.00000       Uiso       1.00
     xx184          H  0.4706500  0.9706500  0.1764800    0.00000       Uiso       1.00
     xx185          H  0.9706500  0.4706500  0.8235201    0.00000       Uiso       1.00
     xx186          H  0.0293500  0.5293500  0.8235201    0.00000       Uiso       1.00
     xx187          H  0.4706500  0.0293500  0.8235201    0.00000       Uiso       1.00
     xx188          H  0.5293500  0.9706500  0.8235201    0.00000       Uiso       1.00
