data_COF-DL229_5
_audit_creation_date              0000-00-00
_audit_creation_method            'LanYouShi'
_symmetry_space_group_name_H-M    'P1'
_cell_length_a                    32.0099983
_cell_length_b                    32.0099983
_cell_length_c                    11.6300001
_cell_angle_alpha                 90.0000000
_cell_angle_beta                  90.0000000
_cell_angle_gamma                 90.0000000
loop_
_atom_site_label
_atom_site_type_symbol
_atom_site_fract_x
_atom_site_fract_y
_atom_site_fract_z
_atom_site_U_iso_or_equiv
_atom_site_adp_type
_atom_site_occupancy
       xx1          C  0.5379000  0.7319500  0.5911200    0.00000       Uiso       1.00
       xx2          C  0.0377800  0.3702700  0.4798500    0.00000       Uiso       1.00
       xx3          C  0.0378500  0.4050000  0.5526600    0.00000       Uiso       1.00
       xx4          H  0.0671900  0.3570400  0.4515600    0.00000       Uiso       1.00
       xx5          H  0.0676500  0.4182000  0.5774000    0.00000       Uiso       1.00
       xx6          C  0.0379000  0.2319500  0.0911200    0.00000       Uiso       1.00
       xx7          C  0.5377800  0.8702700  0.9798500    0.00000       Uiso       1.00
       xx8          C  0.5378500  0.9050000  0.0526600    0.00000       Uiso       1.00
       xx9          H  0.5671900  0.8570400  0.9515600    0.00000       Uiso       1.00
      xx10          H  0.5676500  0.9182000  0.0774000    0.00000       Uiso       1.00
      xx11          C  0.9621000  0.7680500  0.0911200    0.00000       Uiso       1.00
      xx12          C  0.4622200  0.1297300  0.9798500    0.00000       Uiso       1.00
      xx13          C  0.4621500  0.0950000  0.0526600    0.00000       Uiso       1.00
      xx14          H  0.4328100  0.1429600  0.9515600    0.00000       Uiso       1.00
      xx15          H  0.4323500  0.0818000  0.0774000    0.00000       Uiso       1.00
      xx16          C  0.4621000  0.2680500  0.5911200    0.00000       Uiso       1.00
      xx17          C  0.9622200  0.6297300  0.4798500    0.00000       Uiso       1.00
      xx18          C  0.9621500  0.5950000  0.5526600    0.00000       Uiso       1.00
      xx19          H  0.9328100  0.6429600  0.4515600    0.00000       Uiso       1.00
      xx20          H  0.9323500  0.5818000  0.5774000    0.00000       Uiso       1.00
      xx21          C  0.2680500  0.0379000  0.8411200    0.00000       Uiso       1.00
      xx22          C  0.6297300  0.5377800  0.7298500    0.00000       Uiso       1.00
      xx23          C  0.5950000  0.5378500  0.8026600    0.00000       Uiso       1.00
      xx24          H  0.6429600  0.5671900  0.7015600    0.00000       Uiso       1.00
      xx25          H  0.5818000  0.5676500  0.8274000    0.00000       Uiso       1.00
      xx26          C  0.7680500  0.5379000  0.3411200    0.00000       Uiso       1.00
      xx27          C  0.1297300  0.0377800  0.2298500    0.00000       Uiso       1.00
      xx28          C  0.0950000  0.0378500  0.3026600    0.00000       Uiso       1.00
      xx29          H  0.1429600  0.0671900  0.2015600    0.00000       Uiso       1.00
      xx30          H  0.0818000  0.0676500  0.3274000    0.00000       Uiso       1.00
      xx31          C  0.2319500  0.4621000  0.3411200    0.00000       Uiso       1.00
      xx32          C  0.8702700  0.9622200  0.2298500    0.00000       Uiso       1.00
      xx33          C  0.9050000  0.9621500  0.3026600    0.00000       Uiso       1.00
      xx34          H  0.8570400  0.9328100  0.2015600    0.00000       Uiso       1.00
      xx35          H  0.9182000  0.9323500  0.3274000    0.00000       Uiso       1.00
      xx36          C  0.7319500  0.9621000  0.8411200    0.00000       Uiso       1.00
      xx37          C  0.3702700  0.4622200  0.7298500    0.00000       Uiso       1.00
      xx38          C  0.4050000  0.4621500  0.8026600    0.00000       Uiso       1.00
      xx39          H  0.3570400  0.4328100  0.7015600    0.00000       Uiso       1.00
      xx40          H  0.4182000  0.4323500  0.8274000    0.00000       Uiso       1.00
      xx41          C  0.9621000  0.7319500  0.1588800    0.00000       Uiso       1.00
      xx42          C  0.4622200  0.3702700  0.2701500    0.00000       Uiso       1.00
      xx43          C  0.4621500  0.4050000  0.1973400    0.00000       Uiso       1.00
      xx44          H  0.4328100  0.3570400  0.2984400    0.00000       Uiso       1.00
      xx45          H  0.4323500  0.4182000  0.1726000    0.00000       Uiso       1.00
      xx46          C  0.4621000  0.2319500  0.6588800    0.00000       Uiso       1.00
      xx47          C  0.9622200  0.8702700  0.7701500    0.00000       Uiso       1.00
      xx48          C  0.9621500  0.9050000  0.6973400    0.00000       Uiso       1.00
      xx49          H  0.9328100  0.8570400  0.7984400    0.00000       Uiso       1.00
      xx50          H  0.9323500  0.9182000  0.6726000    0.00000       Uiso       1.00
      xx51          C  0.5379000  0.7680500  0.6588800    0.00000       Uiso       1.00
      xx52          C  0.0377800  0.1297300  0.7701500    0.00000       Uiso       1.00
      xx53          C  0.0378500  0.0950000  0.6973400    0.00000       Uiso       1.00
      xx54          H  0.0671900  0.1429600  0.7984400    0.00000       Uiso       1.00
      xx55          H  0.0676500  0.0818000  0.6726000    0.00000       Uiso       1.00
      xx56          C  0.0379000  0.2680500  0.1588800    0.00000       Uiso       1.00
      xx57          C  0.5377800  0.6297300  0.2701500    0.00000       Uiso       1.00
      xx58          C  0.5378500  0.5950000  0.1973400    0.00000       Uiso       1.00
      xx59          H  0.5671900  0.6429600  0.2984400    0.00000       Uiso       1.00
      xx60          H  0.5676500  0.5818000  0.1726000    0.00000       Uiso       1.00
      xx61          C  0.2319500  0.0379000  0.9088800    0.00000       Uiso       1.00
      xx62          C  0.8702700  0.5377800  0.0201500    0.00000       Uiso       1.00
      xx63          C  0.9050000  0.5378500  0.9473400    0.00000       Uiso       1.00
      xx64          H  0.8570400  0.5671900  0.0484400    0.00000       Uiso       1.00
      xx65          H  0.9182000  0.5676500  0.9225999    0.00000       Uiso       1.00
      xx66          C  0.7319500  0.5379000  0.4088800    0.00000       Uiso       1.00
      xx67          C  0.3702700  0.0377800  0.5201500    0.00000       Uiso       1.00
      xx68          C  0.4050000  0.0378500  0.4473400    0.00000       Uiso       1.00
      xx69          H  0.3570400  0.0671900  0.5484400    0.00000       Uiso       1.00
      xx70          H  0.4182000  0.0676500  0.4226000    0.00000       Uiso       1.00
      xx71          C  0.2680500  0.4621000  0.4088800    0.00000       Uiso       1.00
      xx72          C  0.6297300  0.9622200  0.5201500    0.00000       Uiso       1.00
      xx73          C  0.5950000  0.9621500  0.4473400    0.00000       Uiso       1.00
      xx74          H  0.6429600  0.9328100  0.5484400    0.00000       Uiso       1.00
      xx75          H  0.5818000  0.9323500  0.4226000    0.00000       Uiso       1.00
      xx76          C  0.7680500  0.9621000  0.9088800    0.00000       Uiso       1.00
      xx77          C  0.1297300  0.4622200  0.0201500    0.00000       Uiso       1.00
      xx78          C  0.0950000  0.4621500  0.9473400    0.00000       Uiso       1.00
      xx79          H  0.1429600  0.4328100  0.0484400    0.00000       Uiso       1.00
      xx80          H  0.0818000  0.4323500  0.9225999    0.00000       Uiso       1.00
      xx81          C  0.4621000  0.7680500  0.6588800    0.00000       Uiso       1.00
      xx82          C  0.9622200  0.1297300  0.7701500    0.00000       Uiso       1.00
      xx83          C  0.9621500  0.0950000  0.6973400    0.00000       Uiso       1.00
      xx84          H  0.9328100  0.1429600  0.7984400    0.00000       Uiso       1.00
      xx85          H  0.9323500  0.0818000  0.6726000    0.00000       Uiso       1.00
      xx86          C  0.9621000  0.2680500  0.1588800    0.00000       Uiso       1.00
      xx87          C  0.4622200  0.6297300  0.2701500    0.00000       Uiso       1.00
      xx88          C  0.4621500  0.5950000  0.1973400    0.00000       Uiso       1.00
      xx89          H  0.4328100  0.6429600  0.2984400    0.00000       Uiso       1.00
      xx90          H  0.4323500  0.5818000  0.1726000    0.00000       Uiso       1.00
      xx91          C  0.0379000  0.7319500  0.1588800    0.00000       Uiso       1.00
      xx92          C  0.5377800  0.3702700  0.2701500    0.00000       Uiso       1.00
      xx93          C  0.5378500  0.4050000  0.1973400    0.00000       Uiso       1.00
      xx94          H  0.5671900  0.3570400  0.2984400    0.00000       Uiso       1.00
      xx95          H  0.5676500  0.4182000  0.1726000    0.00000       Uiso       1.00
      xx96          C  0.5379000  0.2319500  0.6588800    0.00000       Uiso       1.00
      xx97          C  0.0377800  0.8702700  0.7701500    0.00000       Uiso       1.00
      xx98          C  0.0378500  0.9050000  0.6973400    0.00000       Uiso       1.00
      xx99          H  0.0671900  0.8570400  0.7984400    0.00000       Uiso       1.00
     xx100          H  0.0676500  0.9182000  0.6726000    0.00000       Uiso       1.00
     xx101          C  0.7319500  0.4621000  0.4088800    0.00000       Uiso       1.00
     xx102          C  0.3702700  0.9622200  0.5201500    0.00000       Uiso       1.00
     xx103          C  0.4050000  0.9621500  0.4473400    0.00000       Uiso       1.00
     xx104          H  0.3570400  0.9328100  0.5484400    0.00000       Uiso       1.00
     xx105          H  0.4182000  0.9323500  0.4226000    0.00000       Uiso       1.00
     xx106          C  0.2319500  0.9621000  0.9088800    0.00000       Uiso       1.00
     xx107          C  0.8702700  0.4622200  0.0201500    0.00000       Uiso       1.00
     xx108          C  0.9050000  0.4621500  0.9473400    0.00000       Uiso       1.00
     xx109          H  0.8570400  0.4328100  0.0484400    0.00000       Uiso       1.00
     xx110          H  0.9182000  0.4323500  0.9225999    0.00000       Uiso       1.00
     xx111          C  0.7680500  0.0379000  0.9088800    0.00000       Uiso       1.00
     xx112          C  0.1297300  0.5377800  0.0201500    0.00000       Uiso       1.00
     xx113          C  0.0950000  0.5378500  0.9473400    0.00000       Uiso       1.00
     xx114          H  0.1429600  0.5671900  0.0484400    0.00000       Uiso       1.00
     xx115          H  0.0818000  0.5676500  0.9225999    0.00000       Uiso       1.00
     xx116          C  0.2680500  0.5379000  0.4088800    0.00000       Uiso       1.00
     xx117          C  0.6297300  0.0377800  0.5201500    0.00000       Uiso       1.00
     xx118          C  0.5950000  0.0378500  0.4473400    0.00000       Uiso       1.00
     xx119          H  0.6429600  0.0671900  0.5484400    0.00000       Uiso       1.00
     xx120          H  0.5818000  0.0676500  0.4226000    0.00000       Uiso       1.00
     xx121          C  0.0379000  0.7680500  0.0911200    0.00000       Uiso       1.00
     xx122          C  0.5377800  0.1297300  0.9798500    0.00000       Uiso       1.00
     xx123          C  0.5378500  0.0950000  0.0526600    0.00000       Uiso       1.00
     xx124          H  0.5671900  0.1429600  0.9515600    0.00000       Uiso       1.00
     xx125          H  0.5676500  0.0818000  0.0774000    0.00000       Uiso       1.00
     xx126          C  0.5379000  0.2680500  0.5911200    0.00000       Uiso       1.00
     xx127          C  0.0377800  0.6297300  0.4798500    0.00000       Uiso       1.00
     xx128          C  0.0378500  0.5950000  0.5526600    0.00000       Uiso       1.00
     xx129          H  0.0671900  0.6429600  0.4515600    0.00000       Uiso       1.00
     xx130          H  0.0676500  0.5818000  0.5774000    0.00000       Uiso       1.00
     xx131          C  0.4621000  0.7319500  0.5911200    0.00000       Uiso       1.00
     xx132          C  0.9622200  0.3702700  0.4798500    0.00000       Uiso       1.00
     xx133          C  0.9621500  0.4050000  0.5526600    0.00000       Uiso       1.00
     xx134          H  0.9328100  0.3570400  0.4515600    0.00000       Uiso       1.00
     xx135          H  0.9323500  0.4182000  0.5774000    0.00000       Uiso       1.00
     xx136          C  0.9621000  0.2319500  0.0911200    0.00000       Uiso       1.00
     xx137          C  0.4622200  0.8702700  0.9798500    0.00000       Uiso       1.00
     xx138          C  0.4621500  0.9050000  0.0526600    0.00000       Uiso       1.00
     xx139          H  0.4328100  0.8570400  0.9515600    0.00000       Uiso       1.00
     xx140          H  0.4323500  0.9182000  0.0774000    0.00000       Uiso       1.00
     xx141          C  0.7680500  0.4621000  0.3411200    0.00000       Uiso       1.00
     xx142          C  0.1297300  0.9622200  0.2298500    0.00000       Uiso       1.00
     xx143          C  0.0950000  0.9621500  0.3026600    0.00000       Uiso       1.00
     xx144          H  0.1429600  0.9328100  0.2015600    0.00000       Uiso       1.00
     xx145          H  0.0818000  0.9323500  0.3274000    0.00000       Uiso       1.00
     xx146          C  0.2680500  0.9621000  0.8411200    0.00000       Uiso       1.00
     xx147          C  0.6297300  0.4622200  0.7298500    0.00000       Uiso       1.00
     xx148          C  0.5950000  0.4621500  0.8026600    0.00000       Uiso       1.00
     xx149          H  0.6429600  0.4328100  0.7015600    0.00000       Uiso       1.00
     xx150          H  0.5818000  0.4323500  0.8274000    0.00000       Uiso       1.00
     xx151          C  0.7319500  0.0379000  0.8411200    0.00000       Uiso       1.00
     xx152          C  0.3702700  0.5377800  0.7298500    0.00000       Uiso       1.00
     xx153          C  0.4050000  0.5378500  0.8026600    0.00000       Uiso       1.00
     xx154          H  0.3570400  0.5671900  0.7015600    0.00000       Uiso       1.00
     xx155          H  0.4182000  0.5676500  0.8274000    0.00000       Uiso       1.00
     xx156          C  0.2319500  0.5379000  0.3411200    0.00000       Uiso       1.00
     xx157          C  0.8702700  0.0377800  0.2298500    0.00000       Uiso       1.00
     xx158          C  0.9050000  0.0378500  0.3026600    0.00000       Uiso       1.00
     xx159          H  0.8570400  0.0671900  0.2015600    0.00000       Uiso       1.00
     xx160          H  0.9182000  0.0676500  0.3274000    0.00000       Uiso       1.00
     xx161          C  0.0000000  0.6472300  0.4434500    0.00000       Uiso       1.00
     xx162          C  0.0000000  0.4223500  0.5928500    0.00000       Uiso       1.00
     xx163          N  0.0000000  0.3184300  0.3762000    0.00000       Uiso       1.00
     xx164          C  0.0000000  0.3217800  0.2606500    0.00000       Uiso       1.00
     xx165          C  0.5000000  0.1472300  0.9434500    0.00000       Uiso       1.00
     xx166          C  0.5000000  0.9223500  0.0928500    0.00000       Uiso       1.00
     xx167          N  0.5000000  0.8184300  0.8762000    0.00000       Uiso       1.00
     xx168          C  0.5000000  0.8217800  0.7606500    0.00000       Uiso       1.00
     xx169          C  0.5000000  0.8527700  0.9434500    0.00000       Uiso       1.00
     xx170          C  0.5000000  0.0776500  0.0928500    0.00000       Uiso       1.00
     xx171          N  0.5000000  0.1815700  0.8762000    0.00000       Uiso       1.00
     xx172          C  0.5000000  0.1782200  0.7606500    0.00000       Uiso       1.00
     xx173          C  0.0000000  0.3527700  0.4434500    0.00000       Uiso       1.00
     xx174          C  0.0000000  0.5776500  0.5928500    0.00000       Uiso       1.00
     xx175          N  0.0000000  0.6815700  0.3762000    0.00000       Uiso       1.00
     xx176          C  0.0000000  0.6782200  0.2606500    0.00000       Uiso       1.00
     xx177          C  0.3527700  0.5000000  0.6934500    0.00000       Uiso       1.00
     xx178          C  0.5776500  0.5000000  0.8428500    0.00000       Uiso       1.00
     xx179          N  0.6815700  0.5000000  0.6262000    0.00000       Uiso       1.00
     xx180          C  0.6782200  0.5000000  0.5106500    0.00000       Uiso       1.00
     xx181          C  0.1472300  0.0000000  0.1934500    0.00000       Uiso       1.00
     xx182          C  0.9223500  0.0000000  0.3428500    0.00000       Uiso       1.00
     xx183          N  0.8184300  0.0000000  0.1262000    0.00000       Uiso       1.00
     xx184          C  0.8217800  0.0000000  0.0106500    0.00000       Uiso       1.00
     xx185          C  0.5000000  0.6472300  0.3065500    0.00000       Uiso       1.00
     xx186          C  0.5000000  0.4223500  0.1571500    0.00000       Uiso       1.00
     xx187          N  0.5000000  0.3184300  0.3738000    0.00000       Uiso       1.00
     xx188          C  0.5000000  0.3217800  0.4893500    0.00000       Uiso       1.00
     xx189          C  0.0000000  0.1472300  0.8065500    0.00000       Uiso       1.00
     xx190          C  0.0000000  0.9223500  0.6571500    0.00000       Uiso       1.00
     xx191          N  0.0000000  0.8184300  0.8737999    0.00000       Uiso       1.00
     xx192          C  0.0000000  0.8217800  0.9893500    0.00000       Uiso       1.00
     xx193          C  0.0000000  0.8527700  0.8065500    0.00000       Uiso       1.00
     xx194          C  0.0000000  0.0776500  0.6571500    0.00000       Uiso       1.00
     xx195          N  0.0000000  0.1815700  0.8737999    0.00000       Uiso       1.00
     xx196          C  0.0000000  0.1782200  0.9893500    0.00000       Uiso       1.00
     xx197          C  0.5000000  0.3527700  0.3065500    0.00000       Uiso       1.00
     xx198          C  0.5000000  0.5776500  0.1571500    0.00000       Uiso       1.00
     xx199          N  0.5000000  0.6815700  0.3738000    0.00000       Uiso       1.00
     xx200          C  0.5000000  0.6782200  0.4893500    0.00000       Uiso       1.00
     xx201          C  0.1472300  0.5000000  0.0565500    0.00000       Uiso       1.00
     xx202          C  0.9223500  0.5000000  0.9071500    0.00000       Uiso       1.00
     xx203          N  0.8184300  0.5000000  0.1238000    0.00000       Uiso       1.00
     xx204          C  0.8217800  0.5000000  0.2393500    0.00000       Uiso       1.00
     xx205          C  0.3527700  0.0000000  0.5565500    0.00000       Uiso       1.00
     xx206          C  0.5776500  0.0000000  0.4071500    0.00000       Uiso       1.00
     xx207          N  0.6815700  0.0000000  0.6238000    0.00000       Uiso       1.00
     xx208          C  0.6782200  0.0000000  0.7393500    0.00000       Uiso       1.00
     xx209          C  0.8527700  0.5000000  0.0565500    0.00000       Uiso       1.00
     xx210          C  0.0776500  0.5000000  0.9071500    0.00000       Uiso       1.00
     xx211          N  0.1815700  0.5000000  0.1238000    0.00000       Uiso       1.00
     xx212          C  0.1782200  0.5000000  0.2393500    0.00000       Uiso       1.00
     xx213          C  0.6472300  0.0000000  0.5565500    0.00000       Uiso       1.00
     xx214          C  0.4223500  0.0000000  0.4071500    0.00000       Uiso       1.00
     xx215          N  0.3184300  0.0000000  0.6238000    0.00000       Uiso       1.00
     xx216          C  0.3217800  0.0000000  0.7393500    0.00000       Uiso       1.00
     xx217          C  0.8527700  0.0000000  0.1934500    0.00000       Uiso       1.00
     xx218          C  0.0776500  0.0000000  0.3428500    0.00000       Uiso       1.00
     xx219          N  0.1815700  0.0000000  0.1262000    0.00000       Uiso       1.00
     xx220          C  0.1782200  0.0000000  0.0106500    0.00000       Uiso       1.00
     xx221          C  0.6472300  0.5000000  0.6934500    0.00000       Uiso       1.00
     xx222          C  0.4223500  0.5000000  0.8428500    0.00000       Uiso       1.00
     xx223          N  0.3184300  0.5000000  0.6262000    0.00000       Uiso       1.00
     xx224          C  0.3217800  0.5000000  0.5106500    0.00000       Uiso       1.00
     xx225          C  0.5000000  0.4604700  0.0784600    0.00000       Uiso       1.00
     xx226          C  0.5000000  0.2861700  0.5569200    0.00000       Uiso       1.00
     xx227          C  0.0000000  0.9604700  0.5784600    0.00000       Uiso       1.00
     xx228          C  0.0000000  0.7861700  0.0569200    0.00000       Uiso       1.00
     xx229          C  0.0000000  0.0395300  0.5784600    0.00000       Uiso       1.00
     xx230          C  0.0000000  0.2138300  0.0569200    0.00000       Uiso       1.00
     xx231          C  0.5000000  0.5395300  0.0784600    0.00000       Uiso       1.00
     xx232          C  0.5000000  0.7138300  0.5569200    0.00000       Uiso       1.00
     xx233          C  0.5395300  0.0000000  0.3284600    0.00000       Uiso       1.00
     xx234          C  0.7138300  0.0000000  0.8069200    0.00000       Uiso       1.00
     xx235          C  0.9604700  0.5000000  0.8284600    0.00000       Uiso       1.00
     xx236          C  0.7861700  0.5000000  0.3069200    0.00000       Uiso       1.00
     xx237          C  0.0000000  0.4604700  0.6715400    0.00000       Uiso       1.00
     xx238          C  0.0000000  0.2861700  0.1930800    0.00000       Uiso       1.00
     xx239          C  0.5000000  0.9604700  0.1715400    0.00000       Uiso       1.00
     xx240          C  0.5000000  0.7861700  0.6930799    0.00000       Uiso       1.00
     xx241          C  0.5000000  0.0395300  0.1715400    0.00000       Uiso       1.00
     xx242          C  0.5000000  0.2138300  0.6930799    0.00000       Uiso       1.00
     xx243          C  0.0000000  0.5395300  0.6715400    0.00000       Uiso       1.00
     xx244          C  0.0000000  0.7138300  0.1930800    0.00000       Uiso       1.00
     xx245          C  0.9604700  0.0000000  0.4215400    0.00000       Uiso       1.00
     xx246          C  0.7861700  0.0000000  0.9430800    0.00000       Uiso       1.00
     xx247          C  0.5395300  0.5000000  0.9215400    0.00000       Uiso       1.00
     xx248          C  0.7138300  0.5000000  0.4430800    0.00000       Uiso       1.00
     xx249          C  0.4604700  0.5000000  0.9215400    0.00000       Uiso       1.00
     xx250          C  0.2861700  0.5000000  0.4430800    0.00000       Uiso       1.00
     xx251          C  0.0395300  0.0000000  0.4215400    0.00000       Uiso       1.00
     xx252          C  0.2138300  0.0000000  0.9430800    0.00000       Uiso       1.00
     xx253          C  0.0395300  0.5000000  0.8284600    0.00000       Uiso       1.00
     xx254          C  0.2138300  0.5000000  0.3069200    0.00000       Uiso       1.00
     xx255          C  0.4604700  0.0000000  0.3284600    0.00000       Uiso       1.00
     xx256          C  0.2861700  0.0000000  0.8069200    0.00000       Uiso       1.00
     xx257          C  0.5388900  0.4611100  0.0000000    0.00000       Uiso       1.00
     xx258          C  0.0388900  0.9611100  0.5000000    0.00000       Uiso       1.00
     xx259          C  0.9611100  0.0388900  0.5000000    0.00000       Uiso       1.00
     xx260          C  0.4611100  0.5388900  0.0000000    0.00000       Uiso       1.00
     xx261          C  0.5388900  0.0388900  0.2500000    0.00000       Uiso       1.00
     xx262          C  0.0388900  0.5388900  0.7500000    0.00000       Uiso       1.00
     xx263          C  0.9611100  0.4611100  0.7500000    0.00000       Uiso       1.00
     xx264          C  0.4611100  0.9611100  0.2500000    0.00000       Uiso       1.00
     xx265          C  0.4611100  0.0388900  0.2500000    0.00000       Uiso       1.00
     xx266          C  0.9611100  0.5388900  0.7500000    0.00000       Uiso       1.00
     xx267          C  0.0388900  0.4611100  0.7500000    0.00000       Uiso       1.00
     xx268          C  0.5388900  0.9611100  0.2500000    0.00000       Uiso       1.00
     xx269          C  0.4611100  0.4611100  0.0000000    0.00000       Uiso       1.00
     xx270          C  0.9611100  0.9611100  0.5000000    0.00000       Uiso       1.00
     xx271          C  0.0388900  0.0388900  0.5000000    0.00000       Uiso       1.00
     xx272          C  0.5388900  0.5388900  0.0000000    0.00000       Uiso       1.00
     xx273          C  0.5000000  0.5000000  0.1533200    0.00000       Uiso       1.00
     xx274          C  0.0000000  0.0000000  0.6533200    0.00000       Uiso       1.00
     xx275          C  0.5000000  0.0000000  0.4033200    0.00000       Uiso       1.00
     xx276          C  0.0000000  0.5000000  0.9033200    0.00000       Uiso       1.00
     xx277          C  0.0000000  0.5000000  0.5966800    0.00000       Uiso       1.00
     xx278          C  0.5000000  0.0000000  0.0966800    0.00000       Uiso       1.00
     xx279          C  0.0000000  0.0000000  0.3466800    0.00000       Uiso       1.00
     xx280          C  0.5000000  0.5000000  0.8466800    0.00000       Uiso       1.00
