data_COF-DL229_6
_audit_creation_date              0000-00-00
_audit_creation_method            'LanYouShi'
_symmetry_space_group_name_H-M    'P1'
_cell_length_a                    22.5799999
_cell_length_b                    22.5799999
_cell_length_c                    9.7200003
_cell_angle_alpha                 90.0000000
_cell_angle_beta                  90.0000000
_cell_angle_gamma                 90.0000000
loop_
_atom_site_label
_atom_site_type_symbol
_atom_site_fract_x
_atom_site_fract_y
_atom_site_fract_z
_atom_site_U_iso_or_equiv
_atom_site_adp_type
_atom_site_occupancy
       xx1          C  0.4070500  0.3315000  0.6720900    0.00000       Uiso       1.00
       xx2          C  0.4419800  0.3662000  0.7586300    0.00000       Uiso       1.00
       xx3          C  0.2695600  0.1935200  0.2115700    0.00000       Uiso       1.00
       xx4          H  0.4234900  0.2890400  0.6368400    0.00000       Uiso       1.00
       xx5          H  0.4850500  0.3488600  0.7837300    0.00000       Uiso       1.00
       xx6          H  0.2851900  0.1500100  0.1815600    0.00000       Uiso       1.00
       xx7          H  0.9694500  0.8931100  0.4407800    0.00000       Uiso       1.00
       xx8          C  0.5929500  0.6685000  0.6720900    0.00000       Uiso       1.00
       xx9          C  0.5580200  0.6338000  0.7586300    0.00000       Uiso       1.00
      xx10          C  0.7304400  0.8064800  0.2115700    0.00000       Uiso       1.00
      xx11          H  0.5765100  0.7109600  0.6368400    0.00000       Uiso       1.00
      xx12          H  0.5149500  0.6511400  0.7837300    0.00000       Uiso       1.00
      xx13          H  0.7148100  0.8499900  0.1815600    0.00000       Uiso       1.00
      xx14          H  0.0305500  0.1068900  0.4407800    0.00000       Uiso       1.00
      xx15          C  0.1685000  0.9070500  0.1720900    0.00000       Uiso       1.00
      xx16          C  0.1338000  0.9419800  0.2586300    0.00000       Uiso       1.00
      xx17          C  0.3064800  0.7695600  0.7115700    0.00000       Uiso       1.00
      xx18          H  0.2109600  0.9234900  0.1368400    0.00000       Uiso       1.00
      xx19          H  0.1511400  0.9850500  0.2837300    0.00000       Uiso       1.00
      xx20          H  0.3499900  0.7851900  0.6815600    0.00000       Uiso       1.00
      xx21          H  0.6068900  0.4694500  0.9407800    0.00000       Uiso       1.00
      xx22          C  0.8315000  0.0929500  0.1720900    0.00000       Uiso       1.00
      xx23          C  0.8662000  0.0580200  0.2586300    0.00000       Uiso       1.00
      xx24          C  0.6935200  0.2304400  0.7115700    0.00000       Uiso       1.00
      xx25          H  0.7890401  0.0765100  0.1368400    0.00000       Uiso       1.00
      xx26          H  0.8488600  0.0149500  0.2837300    0.00000       Uiso       1.00
      xx27          H  0.6500100  0.2148100  0.6815600    0.00000       Uiso       1.00
      xx28          H  0.3931100  0.5305500  0.9407800    0.00000       Uiso       1.00
      xx29          C  0.5929500  0.3315000  0.3279100    0.00000       Uiso       1.00
      xx30          C  0.5580200  0.3662000  0.2413700    0.00000       Uiso       1.00
      xx31          C  0.7304400  0.1935200  0.7884300    0.00000       Uiso       1.00
      xx32          H  0.5765100  0.2890400  0.3631600    0.00000       Uiso       1.00
      xx33          H  0.5149500  0.3488600  0.2162700    0.00000       Uiso       1.00
      xx34          H  0.7148100  0.1500100  0.8184400    0.00000       Uiso       1.00
      xx35          H  0.0305500  0.8931100  0.5592200    0.00000       Uiso       1.00
      xx36          C  0.4070500  0.6685000  0.3279100    0.00000       Uiso       1.00
      xx37          C  0.4419800  0.6338000  0.2413700    0.00000       Uiso       1.00
      xx38          C  0.2695600  0.8064800  0.7884300    0.00000       Uiso       1.00
      xx39          H  0.4234900  0.7109600  0.3631600    0.00000       Uiso       1.00
      xx40          H  0.4850500  0.6511400  0.2162700    0.00000       Uiso       1.00
      xx41          H  0.2851900  0.8499900  0.8184400    0.00000       Uiso       1.00
      xx42          H  0.9694500  0.1068900  0.5592200    0.00000       Uiso       1.00
      xx43          C  0.8315000  0.9070500  0.8279099    0.00000       Uiso       1.00
      xx44          C  0.8662000  0.9419800  0.7413700    0.00000       Uiso       1.00
      xx45          C  0.6935200  0.7695600  0.2884300    0.00000       Uiso       1.00
      xx46          H  0.7890401  0.9234900  0.8631600    0.00000       Uiso       1.00
      xx47          H  0.8488600  0.9850500  0.7162700    0.00000       Uiso       1.00
      xx48          H  0.6500100  0.7851900  0.3184400    0.00000       Uiso       1.00
      xx49          H  0.3931100  0.4694500  0.0592200    0.00000       Uiso       1.00
      xx50          C  0.1685000  0.0929500  0.8279099    0.00000       Uiso       1.00
      xx51          C  0.1338000  0.0580200  0.7413700    0.00000       Uiso       1.00
      xx52          C  0.3064800  0.2304400  0.2884300    0.00000       Uiso       1.00
      xx53          H  0.2109600  0.0765100  0.8631600    0.00000       Uiso       1.00
      xx54          H  0.1511400  0.0149500  0.7162700    0.00000       Uiso       1.00
      xx55          H  0.3499900  0.2148100  0.3184400    0.00000       Uiso       1.00
      xx56          H  0.6068900  0.5305500  0.0592200    0.00000       Uiso       1.00
      xx57          C  0.0929500  0.1685000  0.8279099    0.00000       Uiso       1.00
      xx58          C  0.0580200  0.1338000  0.7413700    0.00000       Uiso       1.00
      xx59          C  0.2304400  0.3064800  0.2884300    0.00000       Uiso       1.00
      xx60          H  0.0765100  0.2109600  0.8631600    0.00000       Uiso       1.00
      xx61          H  0.0149500  0.1511400  0.7162700    0.00000       Uiso       1.00
      xx62          H  0.2148100  0.3499900  0.3184400    0.00000       Uiso       1.00
      xx63          H  0.5305500  0.6068900  0.0592200    0.00000       Uiso       1.00
      xx64          C  0.9070500  0.8315000  0.8279099    0.00000       Uiso       1.00
      xx65          C  0.9419800  0.8662000  0.7413700    0.00000       Uiso       1.00
      xx66          C  0.7695600  0.6935200  0.2884300    0.00000       Uiso       1.00
      xx67          H  0.9234900  0.7890401  0.8631600    0.00000       Uiso       1.00
      xx68          H  0.9850500  0.8488600  0.7162700    0.00000       Uiso       1.00
      xx69          H  0.7851900  0.6500100  0.3184400    0.00000       Uiso       1.00
      xx70          H  0.4694500  0.3931100  0.0592200    0.00000       Uiso       1.00
      xx71          C  0.3315000  0.5929500  0.3279100    0.00000       Uiso       1.00
      xx72          C  0.3662000  0.5580200  0.2413700    0.00000       Uiso       1.00
      xx73          C  0.1935200  0.7304400  0.7884300    0.00000       Uiso       1.00
      xx74          H  0.2890400  0.5765100  0.3631600    0.00000       Uiso       1.00
      xx75          H  0.3488600  0.5149500  0.2162700    0.00000       Uiso       1.00
      xx76          H  0.1500100  0.7148100  0.8184400    0.00000       Uiso       1.00
      xx77          H  0.8931100  0.0305500  0.5592200    0.00000       Uiso       1.00
      xx78          C  0.6685000  0.4070500  0.3279100    0.00000       Uiso       1.00
      xx79          C  0.6338000  0.4419800  0.2413700    0.00000       Uiso       1.00
      xx80          C  0.8064800  0.2695600  0.7884300    0.00000       Uiso       1.00
      xx81          H  0.7109600  0.4234900  0.3631600    0.00000       Uiso       1.00
      xx82          H  0.6511400  0.4850500  0.2162700    0.00000       Uiso       1.00
      xx83          H  0.8499900  0.2851900  0.8184400    0.00000       Uiso       1.00
      xx84          H  0.1068900  0.9694500  0.5592200    0.00000       Uiso       1.00
      xx85          C  0.9070500  0.1685000  0.1720900    0.00000       Uiso       1.00
      xx86          C  0.9419800  0.1338000  0.2586300    0.00000       Uiso       1.00
      xx87          C  0.7695600  0.3064800  0.7115700    0.00000       Uiso       1.00
      xx88          H  0.9234900  0.2109600  0.1368400    0.00000       Uiso       1.00
      xx89          H  0.9850500  0.1511400  0.2837300    0.00000       Uiso       1.00
      xx90          H  0.7851900  0.3499900  0.6815600    0.00000       Uiso       1.00
      xx91          H  0.4694500  0.6068900  0.9407800    0.00000       Uiso       1.00
      xx92          C  0.0929500  0.8315000  0.1720900    0.00000       Uiso       1.00
      xx93          C  0.0580200  0.8662000  0.2586300    0.00000       Uiso       1.00
      xx94          C  0.2304400  0.6935200  0.7115700    0.00000       Uiso       1.00
      xx95          H  0.0765100  0.7890401  0.1368400    0.00000       Uiso       1.00
      xx96          H  0.0149500  0.8488600  0.2837300    0.00000       Uiso       1.00
      xx97          H  0.2148100  0.6500100  0.6815600    0.00000       Uiso       1.00
      xx98          H  0.5305500  0.3931100  0.9407800    0.00000       Uiso       1.00
      xx99          C  0.6685000  0.5929500  0.6720900    0.00000       Uiso       1.00
     xx100          C  0.6338000  0.5580200  0.7586300    0.00000       Uiso       1.00
     xx101          C  0.8064800  0.7304400  0.2115700    0.00000       Uiso       1.00
     xx102          H  0.7109600  0.5765100  0.6368400    0.00000       Uiso       1.00
     xx103          H  0.6511400  0.5149500  0.7837300    0.00000       Uiso       1.00
     xx104          H  0.8499900  0.7148100  0.1815600    0.00000       Uiso       1.00
     xx105          H  0.1068900  0.0305500  0.4407800    0.00000       Uiso       1.00
     xx106          C  0.3315000  0.4070500  0.6720900    0.00000       Uiso       1.00
     xx107          C  0.3662000  0.4419800  0.7586300    0.00000       Uiso       1.00
     xx108          C  0.1935200  0.2695600  0.2115700    0.00000       Uiso       1.00
     xx109          H  0.2890400  0.4234900  0.6368400    0.00000       Uiso       1.00
     xx110          H  0.3488600  0.4850500  0.7837300    0.00000       Uiso       1.00
     xx111          H  0.1500100  0.2851900  0.1815600    0.00000       Uiso       1.00
     xx112          H  0.8931100  0.9694500  0.4407800    0.00000       Uiso       1.00
     xx113          C  0.4215800  0.4215800  0.8082700    0.00000       Uiso       1.00
     xx114          N  0.3180900  0.3180900  0.5459200    0.00000       Uiso       1.00
     xx115          C  0.3224000  0.3224000  0.4079200    0.00000       Uiso       1.00
     xx116          H  0.3531200  0.3531200  0.3602500    0.00000       Uiso       1.00
     xx117          C  0.9603300  0.9603300  0.5963100    0.00000       Uiso       1.00
     xx118          C  0.6483500  0.6483500  0.6297200    0.00000       Uiso       1.00
     xx119          C  0.7870300  0.7870300  0.1734300    0.00000       Uiso       1.00
     xx120          C  0.5784200  0.5784200  0.8082700    0.00000       Uiso       1.00
     xx121          N  0.6819100  0.6819100  0.5459200    0.00000       Uiso       1.00
     xx122          C  0.6776000  0.6776000  0.4079200    0.00000       Uiso       1.00
     xx123          H  0.6468800  0.6468800  0.3602500    0.00000       Uiso       1.00
     xx124          C  0.0396700  0.0396700  0.5963100    0.00000       Uiso       1.00
     xx125          C  0.3516500  0.3516500  0.6297200    0.00000       Uiso       1.00
     xx126          C  0.2129700  0.2129700  0.1734300    0.00000       Uiso       1.00
     xx127          C  0.0784200  0.9215800  0.3082700    0.00000       Uiso       1.00
     xx128          N  0.1819100  0.8180900  0.0459200    0.00000       Uiso       1.00
     xx129          C  0.1776000  0.8224000  0.9079200    0.00000       Uiso       1.00
     xx130          H  0.1468800  0.8531200  0.8602500    0.00000       Uiso       1.00
     xx131          C  0.5396700  0.4603300  0.0963100    0.00000       Uiso       1.00
     xx132          C  0.8516500  0.1483500  0.1297200    0.00000       Uiso       1.00
     xx133          C  0.7129700  0.2870300  0.6734300    0.00000       Uiso       1.00
     xx134          C  0.9215800  0.0784200  0.3082700    0.00000       Uiso       1.00
     xx135          N  0.8180900  0.1819100  0.0459200    0.00000       Uiso       1.00
     xx136          C  0.8224000  0.1776000  0.9079200    0.00000       Uiso       1.00
     xx137          H  0.8531200  0.1468800  0.8602500    0.00000       Uiso       1.00
     xx138          C  0.4603300  0.5396700  0.0963100    0.00000       Uiso       1.00
     xx139          C  0.1483500  0.8516500  0.1297200    0.00000       Uiso       1.00
     xx140          C  0.2870300  0.7129700  0.6734300    0.00000       Uiso       1.00
     xx141          C  0.5784200  0.4215800  0.1917300    0.00000       Uiso       1.00
     xx142          N  0.6819100  0.3180900  0.4540800    0.00000       Uiso       1.00
     xx143          C  0.6776000  0.3224000  0.5920800    0.00000       Uiso       1.00
     xx144          H  0.6468800  0.3531200  0.6397500    0.00000       Uiso       1.00
     xx145          C  0.0396700  0.9603300  0.4036900    0.00000       Uiso       1.00
     xx146          C  0.3516500  0.6483500  0.3702800    0.00000       Uiso       1.00
     xx147          C  0.2129700  0.7870300  0.8265700    0.00000       Uiso       1.00
     xx148          C  0.4215800  0.5784200  0.1917300    0.00000       Uiso       1.00
     xx149          N  0.3180900  0.6819100  0.4540800    0.00000       Uiso       1.00
     xx150          C  0.3224000  0.6776000  0.5920800    0.00000       Uiso       1.00
     xx151          H  0.3531200  0.6468800  0.6397500    0.00000       Uiso       1.00
     xx152          C  0.9603300  0.0396700  0.4036900    0.00000       Uiso       1.00
     xx153          C  0.6483500  0.3516500  0.3702800    0.00000       Uiso       1.00
     xx154          C  0.7870300  0.2129700  0.8265700    0.00000       Uiso       1.00
     xx155          C  0.9215800  0.9215800  0.6917300    0.00000       Uiso       1.00
     xx156          N  0.8180900  0.8180900  0.9540800    0.00000       Uiso       1.00
     xx157          C  0.8224000  0.8224000  0.0920800    0.00000       Uiso       1.00
     xx158          H  0.8531200  0.8531200  0.1397500    0.00000       Uiso       1.00
     xx159          C  0.4603300  0.4603300  0.9036900    0.00000       Uiso       1.00
     xx160          C  0.1483500  0.1483500  0.8702800    0.00000       Uiso       1.00
     xx161          C  0.2870300  0.2870300  0.3265700    0.00000       Uiso       1.00
     xx162          C  0.0784200  0.0784200  0.6917300    0.00000       Uiso       1.00
     xx163          N  0.1819100  0.1819100  0.9540800    0.00000       Uiso       1.00
     xx164          C  0.1776000  0.1776000  0.0920800    0.00000       Uiso       1.00
     xx165          H  0.1468800  0.1468800  0.1397500    0.00000       Uiso       1.00
     xx166          C  0.5396700  0.5396700  0.9036900    0.00000       Uiso       1.00
     xx167          C  0.8516500  0.8516500  0.8702800    0.00000       Uiso       1.00
     xx168          C  0.7129700  0.7129700  0.3265700    0.00000       Uiso       1.00
     xx169          C  0.0000000  0.9218400  0.5000000    0.00000       Uiso       1.00
     xx170          C  0.0000000  0.0781600  0.5000000    0.00000       Uiso       1.00
     xx171          C  0.5781600  0.5000000  0.0000000    0.00000       Uiso       1.00
     xx172          C  0.4218400  0.5000000  0.0000000    0.00000       Uiso       1.00
     xx173          C  0.5000000  0.5781600  0.0000000    0.00000       Uiso       1.00
     xx174          C  0.5000000  0.4218400  0.0000000    0.00000       Uiso       1.00
     xx175          C  0.9218400  0.0000000  0.5000000    0.00000       Uiso       1.00
     xx176          C  0.0781600  0.0000000  0.5000000    0.00000       Uiso       1.00
     xx177          C  0.0000000  0.0000000  0.6865100    0.00000       Uiso       1.00
     xx178          C  0.5000000  0.5000000  0.1865100    0.00000       Uiso       1.00
     xx179          C  0.0000000  0.0000000  0.3134900    0.00000       Uiso       1.00
     xx180          C  0.5000000  0.5000000  0.8134900    0.00000       Uiso       1.00
     xx181          H  0.0281100  0.9718900  0.7543700    0.00000       Uiso       1.00
     xx182          H  0.9718900  0.0281100  0.7543700    0.00000       Uiso       1.00
     xx183          H  0.5281100  0.5281100  0.2543700    0.00000       Uiso       1.00
     xx184          H  0.4718900  0.4718900  0.2543700    0.00000       Uiso       1.00
     xx185          H  0.9718900  0.9718900  0.2456300    0.00000       Uiso       1.00
     xx186          H  0.0281100  0.0281100  0.2456300    0.00000       Uiso       1.00
     xx187          H  0.4718900  0.5281100  0.7456300    0.00000       Uiso       1.00
     xx188          H  0.5281100  0.4718900  0.7456300    0.00000       Uiso       1.00
