data_COF-DL229_7
_audit_creation_date              0000-00-00
_audit_creation_method            'LanYouShi'
_symmetry_space_group_name_H-M    'P1'
_cell_length_a                    32.0099983
_cell_length_b                    32.0099983
_cell_length_c                    7.6500001
_cell_angle_alpha                 90.0000000
_cell_angle_beta                  90.0000000
_cell_angle_gamma                 90.0000000
loop_
_atom_site_label
_atom_site_type_symbol
_atom_site_fract_x
_atom_site_fract_y
_atom_site_fract_z
_atom_site_U_iso_or_equiv
_atom_site_adp_type
_atom_site_occupancy
       xx1          C  0.0379200  0.8725400  0.5943400    0.00000       Uiso       1.00
       xx2          C  0.0380200  0.9070800  0.7028400    0.00000       Uiso       1.00
       xx3          C  0.5379400  0.2290300  0.6024800    0.00000       Uiso       1.00
       xx4          H  0.0672300  0.8594500  0.5493500    0.00000       Uiso       1.00
       xx5          H  0.0678200  0.9206200  0.7385100    0.00000       Uiso       1.00
       xx6          H  0.5674300  0.2133500  0.5786700    0.00000       Uiso       1.00
       xx7          C  0.5379200  0.3725400  0.0943400    0.00000       Uiso       1.00
       xx8          C  0.5380200  0.4070800  0.2028400    0.00000       Uiso       1.00
       xx9          C  0.0379400  0.7290300  0.1024800    0.00000       Uiso       1.00
      xx10          H  0.5672300  0.3594500  0.0493500    0.00000       Uiso       1.00
      xx11          H  0.5678200  0.4206200  0.2385100    0.00000       Uiso       1.00
      xx12          H  0.0674300  0.7133500  0.0786700    0.00000       Uiso       1.00
      xx13          C  0.4620800  0.6274600  0.0943400    0.00000       Uiso       1.00
      xx14          C  0.4619800  0.5929200  0.2028400    0.00000       Uiso       1.00
      xx15          C  0.9620600  0.2709700  0.1024800    0.00000       Uiso       1.00
      xx16          H  0.4327700  0.6405500  0.0493500    0.00000       Uiso       1.00
      xx17          H  0.4321800  0.5793800  0.2385100    0.00000       Uiso       1.00
      xx18          H  0.9325700  0.2866500  0.0786700    0.00000       Uiso       1.00
      xx19          C  0.9620800  0.1274600  0.5943400    0.00000       Uiso       1.00
      xx20          C  0.9619800  0.0929200  0.7028400    0.00000       Uiso       1.00
      xx21          C  0.4620600  0.7709700  0.6024800    0.00000       Uiso       1.00
      xx22          H  0.9327700  0.1405500  0.5493500    0.00000       Uiso       1.00
      xx23          H  0.9321800  0.0793800  0.7385100    0.00000       Uiso       1.00
      xx24          H  0.4325700  0.7866500  0.5786700    0.00000       Uiso       1.00
      xx25          C  0.1274600  0.5379200  0.8443400    0.00000       Uiso       1.00
      xx26          C  0.0929200  0.5380200  0.9528400    0.00000       Uiso       1.00
      xx27          C  0.7709700  0.0379400  0.8524800    0.00000       Uiso       1.00
      xx28          H  0.1405500  0.5672300  0.7993500    0.00000       Uiso       1.00
      xx29          H  0.0793800  0.5678200  0.9885100    0.00000       Uiso       1.00
      xx30          H  0.7866500  0.0674300  0.8286700    0.00000       Uiso       1.00
      xx31          C  0.6274600  0.0379200  0.3443400    0.00000       Uiso       1.00
      xx32          C  0.5929200  0.0380200  0.4528400    0.00000       Uiso       1.00
      xx33          C  0.2709700  0.5379400  0.3524800    0.00000       Uiso       1.00
      xx34          H  0.6405500  0.0672300  0.2993500    0.00000       Uiso       1.00
      xx35          H  0.5793800  0.0678200  0.4885100    0.00000       Uiso       1.00
      xx36          H  0.2866500  0.5674300  0.3286700    0.00000       Uiso       1.00
      xx37          C  0.3725400  0.9620800  0.3443400    0.00000       Uiso       1.00
      xx38          C  0.4070800  0.9619800  0.4528400    0.00000       Uiso       1.00
      xx39          C  0.7290300  0.4620600  0.3524800    0.00000       Uiso       1.00
      xx40          H  0.3594500  0.9327700  0.2993500    0.00000       Uiso       1.00
      xx41          H  0.4206200  0.9321800  0.4885100    0.00000       Uiso       1.00
      xx42          H  0.7133500  0.4325700  0.3286700    0.00000       Uiso       1.00
      xx43          C  0.8725400  0.4620800  0.8443400    0.00000       Uiso       1.00
      xx44          C  0.9070800  0.4619800  0.9528400    0.00000       Uiso       1.00
      xx45          C  0.2290300  0.9620600  0.8524800    0.00000       Uiso       1.00
      xx46          H  0.8594500  0.4327700  0.7993500    0.00000       Uiso       1.00
      xx47          H  0.9206200  0.4321800  0.9885100    0.00000       Uiso       1.00
      xx48          H  0.2133500  0.9325700  0.8286700    0.00000       Uiso       1.00
      xx49          C  0.4620800  0.8725400  0.1556600    0.00000       Uiso       1.00
      xx50          C  0.4619800  0.9070800  0.0471600    0.00000       Uiso       1.00
      xx51          C  0.9620600  0.2290300  0.1475200    0.00000       Uiso       1.00
      xx52          H  0.4327700  0.8594500  0.2006500    0.00000       Uiso       1.00
      xx53          H  0.4321800  0.9206200  0.0114900    0.00000       Uiso       1.00
      xx54          H  0.9325700  0.2133500  0.1713300    0.00000       Uiso       1.00
      xx55          C  0.9620800  0.3725400  0.6556600    0.00000       Uiso       1.00
      xx56          C  0.9619800  0.4070800  0.5471600    0.00000       Uiso       1.00
      xx57          C  0.4620600  0.7290300  0.6475200    0.00000       Uiso       1.00
      xx58          H  0.9327700  0.3594500  0.7006500    0.00000       Uiso       1.00
      xx59          H  0.9321800  0.4206200  0.5114900    0.00000       Uiso       1.00
      xx60          H  0.4325700  0.7133500  0.6713300    0.00000       Uiso       1.00
      xx61          C  0.0379200  0.6274600  0.6556600    0.00000       Uiso       1.00
      xx62          C  0.0380200  0.5929200  0.5471600    0.00000       Uiso       1.00
      xx63          C  0.5379400  0.2709700  0.6475200    0.00000       Uiso       1.00
      xx64          H  0.0672300  0.6405500  0.7006500    0.00000       Uiso       1.00
      xx65          H  0.0678200  0.5793800  0.5114900    0.00000       Uiso       1.00
      xx66          H  0.5674300  0.2866500  0.6713300    0.00000       Uiso       1.00
      xx67          C  0.5379200  0.1274600  0.1556600    0.00000       Uiso       1.00
      xx68          C  0.5380200  0.0929200  0.0471600    0.00000       Uiso       1.00
      xx69          C  0.0379400  0.7709700  0.1475200    0.00000       Uiso       1.00
      xx70          H  0.5672300  0.1405500  0.2006500    0.00000       Uiso       1.00
      xx71          H  0.5678200  0.0793800  0.0114900    0.00000       Uiso       1.00
      xx72          H  0.0674300  0.7866500  0.1713300    0.00000       Uiso       1.00
      xx73          C  0.3725400  0.5379200  0.9056600    0.00000       Uiso       1.00
      xx74          C  0.4070800  0.5380200  0.7971600    0.00000       Uiso       1.00
      xx75          C  0.7290300  0.0379400  0.8975200    0.00000       Uiso       1.00
      xx76          H  0.3594500  0.5672300  0.9506500    0.00000       Uiso       1.00
      xx77          H  0.4206200  0.5678200  0.7614900    0.00000       Uiso       1.00
      xx78          H  0.7133500  0.0674300  0.9213300    0.00000       Uiso       1.00
      xx79          C  0.8725400  0.0379200  0.4056600    0.00000       Uiso       1.00
      xx80          C  0.9070800  0.0380200  0.2971600    0.00000       Uiso       1.00
      xx81          C  0.2290300  0.5379400  0.3975200    0.00000       Uiso       1.00
      xx82          H  0.8594500  0.0672300  0.4506500    0.00000       Uiso       1.00
      xx83          H  0.9206200  0.0678200  0.2614900    0.00000       Uiso       1.00
      xx84          H  0.2133500  0.5674300  0.4213300    0.00000       Uiso       1.00
      xx85          C  0.1274600  0.9620800  0.4056600    0.00000       Uiso       1.00
      xx86          C  0.0929200  0.9619800  0.2971600    0.00000       Uiso       1.00
      xx87          C  0.7709700  0.4620600  0.3975200    0.00000       Uiso       1.00
      xx88          H  0.1405500  0.9327700  0.4506500    0.00000       Uiso       1.00
      xx89          H  0.0793800  0.9321800  0.2614900    0.00000       Uiso       1.00
      xx90          H  0.7866500  0.4325700  0.4213300    0.00000       Uiso       1.00
      xx91          C  0.6274600  0.4620800  0.9056600    0.00000       Uiso       1.00
      xx92          C  0.5929200  0.4619800  0.7971600    0.00000       Uiso       1.00
      xx93          C  0.2709700  0.9620600  0.8975200    0.00000       Uiso       1.00
      xx94          H  0.6405500  0.4327700  0.9506500    0.00000       Uiso       1.00
      xx95          H  0.5793800  0.4321800  0.7614900    0.00000       Uiso       1.00
      xx96          H  0.2866500  0.9325700  0.9213300    0.00000       Uiso       1.00
      xx97          C  0.9620800  0.6274600  0.6556600    0.00000       Uiso       1.00
      xx98          C  0.9619800  0.5929200  0.5471600    0.00000       Uiso       1.00
      xx99          C  0.4620600  0.2709700  0.6475200    0.00000       Uiso       1.00
     xx100          H  0.9327700  0.6405500  0.7006500    0.00000       Uiso       1.00
     xx101          H  0.9321800  0.5793800  0.5114900    0.00000       Uiso       1.00
     xx102          H  0.4325700  0.2866500  0.6713300    0.00000       Uiso       1.00
     xx103          C  0.4620800  0.1274600  0.1556600    0.00000       Uiso       1.00
     xx104          C  0.4619800  0.0929200  0.0471600    0.00000       Uiso       1.00
     xx105          C  0.9620600  0.7709700  0.1475200    0.00000       Uiso       1.00
     xx106          H  0.4327700  0.1405500  0.2006500    0.00000       Uiso       1.00
     xx107          H  0.4321800  0.0793800  0.0114900    0.00000       Uiso       1.00
     xx108          H  0.9325700  0.7866500  0.1713300    0.00000       Uiso       1.00
     xx109          C  0.5379200  0.8725400  0.1556600    0.00000       Uiso       1.00
     xx110          C  0.5380200  0.9070800  0.0471600    0.00000       Uiso       1.00
     xx111          C  0.0379400  0.2290300  0.1475200    0.00000       Uiso       1.00
     xx112          H  0.5672300  0.8594500  0.2006500    0.00000       Uiso       1.00
     xx113          H  0.5678200  0.9206200  0.0114900    0.00000       Uiso       1.00
     xx114          H  0.0674300  0.2133500  0.1713300    0.00000       Uiso       1.00
     xx115          C  0.0379200  0.3725400  0.6556600    0.00000       Uiso       1.00
     xx116          C  0.0380200  0.4070800  0.5471600    0.00000       Uiso       1.00
     xx117          C  0.5379400  0.7290300  0.6475200    0.00000       Uiso       1.00
     xx118          H  0.0672300  0.3594500  0.7006500    0.00000       Uiso       1.00
     xx119          H  0.0678200  0.4206200  0.5114900    0.00000       Uiso       1.00
     xx120          H  0.5674300  0.7133500  0.6713300    0.00000       Uiso       1.00
     xx121          C  0.8725400  0.9620800  0.4056600    0.00000       Uiso       1.00
     xx122          C  0.9070800  0.9619800  0.2971600    0.00000       Uiso       1.00
     xx123          C  0.2290300  0.4620600  0.3975200    0.00000       Uiso       1.00
     xx124          H  0.8594500  0.9327700  0.4506500    0.00000       Uiso       1.00
     xx125          H  0.9206200  0.9321800  0.2614900    0.00000       Uiso       1.00
     xx126          H  0.2133500  0.4325700  0.4213300    0.00000       Uiso       1.00
     xx127          C  0.3725400  0.4620800  0.9056600    0.00000       Uiso       1.00
     xx128          C  0.4070800  0.4619800  0.7971600    0.00000       Uiso       1.00
     xx129          C  0.7290300  0.9620600  0.8975200    0.00000       Uiso       1.00
     xx130          H  0.3594500  0.4327700  0.9506500    0.00000       Uiso       1.00
     xx131          H  0.4206200  0.4321800  0.7614900    0.00000       Uiso       1.00
     xx132          H  0.7133500  0.9325700  0.9213300    0.00000       Uiso       1.00
     xx133          C  0.6274600  0.5379200  0.9056600    0.00000       Uiso       1.00
     xx134          C  0.5929200  0.5380200  0.7971600    0.00000       Uiso       1.00
     xx135          C  0.2709700  0.0379400  0.8975200    0.00000       Uiso       1.00
     xx136          H  0.6405500  0.5672300  0.9506500    0.00000       Uiso       1.00
     xx137          H  0.5793800  0.5678200  0.7614900    0.00000       Uiso       1.00
     xx138          H  0.2866500  0.0674300  0.9213300    0.00000       Uiso       1.00
     xx139          C  0.1274600  0.0379200  0.4056600    0.00000       Uiso       1.00
     xx140          C  0.0929200  0.0380200  0.2971600    0.00000       Uiso       1.00
     xx141          C  0.7709700  0.5379400  0.3975200    0.00000       Uiso       1.00
     xx142          H  0.1405500  0.0672300  0.4506500    0.00000       Uiso       1.00
     xx143          H  0.0793800  0.0678200  0.2614900    0.00000       Uiso       1.00
     xx144          H  0.7866500  0.5674300  0.4213300    0.00000       Uiso       1.00
     xx145          C  0.5379200  0.6274600  0.0943400    0.00000       Uiso       1.00
     xx146          C  0.5380200  0.5929200  0.2028400    0.00000       Uiso       1.00
     xx147          C  0.0379400  0.2709700  0.1024800    0.00000       Uiso       1.00
     xx148          H  0.5672300  0.6405500  0.0493500    0.00000       Uiso       1.00
     xx149          H  0.5678200  0.5793800  0.2385100    0.00000       Uiso       1.00
     xx150          H  0.0674300  0.2866500  0.0786700    0.00000       Uiso       1.00
     xx151          C  0.0379200  0.1274600  0.5943400    0.00000       Uiso       1.00
     xx152          C  0.0380200  0.0929200  0.7028400    0.00000       Uiso       1.00
     xx153          C  0.5379400  0.7709700  0.6024800    0.00000       Uiso       1.00
     xx154          H  0.0672300  0.1405500  0.5493500    0.00000       Uiso       1.00
     xx155          H  0.0678200  0.0793800  0.7385100    0.00000       Uiso       1.00
     xx156          H  0.5674300  0.7866500  0.5786700    0.00000       Uiso       1.00
     xx157          C  0.9620800  0.8725400  0.5943400    0.00000       Uiso       1.00
     xx158          C  0.9619800  0.9070800  0.7028400    0.00000       Uiso       1.00
     xx159          C  0.4620600  0.2290300  0.6024800    0.00000       Uiso       1.00
     xx160          H  0.9327700  0.8594500  0.5493500    0.00000       Uiso       1.00
     xx161          H  0.9321800  0.9206200  0.7385100    0.00000       Uiso       1.00
     xx162          H  0.4325700  0.2133500  0.5786700    0.00000       Uiso       1.00
     xx163          C  0.4620800  0.3725400  0.0943400    0.00000       Uiso       1.00
     xx164          C  0.4619800  0.4070800  0.2028400    0.00000       Uiso       1.00
     xx165          C  0.9620600  0.7290300  0.1024800    0.00000       Uiso       1.00
     xx166          H  0.4327700  0.3594500  0.0493500    0.00000       Uiso       1.00
     xx167          H  0.4321800  0.4206200  0.2385100    0.00000       Uiso       1.00
     xx168          H  0.9325700  0.7133500  0.0786700    0.00000       Uiso       1.00
     xx169          C  0.6274600  0.9620800  0.3443400    0.00000       Uiso       1.00
     xx170          C  0.5929200  0.9619800  0.4528400    0.00000       Uiso       1.00
     xx171          C  0.2709700  0.4620600  0.3524800    0.00000       Uiso       1.00
     xx172          H  0.6405500  0.9327700  0.2993500    0.00000       Uiso       1.00
     xx173          H  0.5793800  0.9321800  0.4885100    0.00000       Uiso       1.00
     xx174          H  0.2866500  0.4325700  0.3286700    0.00000       Uiso       1.00
     xx175          C  0.1274600  0.4620800  0.8443400    0.00000       Uiso       1.00
     xx176          C  0.0929200  0.4619800  0.9528400    0.00000       Uiso       1.00
     xx177          C  0.7709700  0.9620600  0.8524800    0.00000       Uiso       1.00
     xx178          H  0.1405500  0.4327700  0.7993500    0.00000       Uiso       1.00
     xx179          H  0.0793800  0.4321800  0.9885100    0.00000       Uiso       1.00
     xx180          H  0.7866500  0.9325700  0.8286700    0.00000       Uiso       1.00
     xx181          C  0.8725400  0.5379200  0.8443400    0.00000       Uiso       1.00
     xx182          C  0.9070800  0.5380200  0.9528400    0.00000       Uiso       1.00
     xx183          C  0.2290300  0.0379400  0.8524800    0.00000       Uiso       1.00
     xx184          H  0.8594500  0.5672300  0.7993500    0.00000       Uiso       1.00
     xx185          H  0.9206200  0.5678200  0.9885100    0.00000       Uiso       1.00
     xx186          H  0.2133500  0.0674300  0.8286700    0.00000       Uiso       1.00
     xx187          C  0.3725400  0.0379200  0.3443400    0.00000       Uiso       1.00
     xx188          C  0.4070800  0.0380200  0.4528400    0.00000       Uiso       1.00
     xx189          C  0.7290300  0.5379400  0.3524800    0.00000       Uiso       1.00
     xx190          H  0.3594500  0.0672300  0.2993500    0.00000       Uiso       1.00
     xx191          H  0.4206200  0.0678200  0.4885100    0.00000       Uiso       1.00
     xx192          H  0.7133500  0.5674300  0.3286700    0.00000       Uiso       1.00
     xx193          C  0.0000000  0.9237900  0.7639500    0.00000       Uiso       1.00
     xx194          N  0.0000000  0.8222300  0.4374300    0.00000       Uiso       1.00
     xx195          C  0.0000000  0.8276900  0.2640300    0.00000       Uiso       1.00
     xx196          C  0.0000000  0.1448000  0.5426000    0.00000       Uiso       1.00
     xx197          C  0.0000000  0.4610200  0.3681800    0.00000       Uiso       1.00
     xx198          C  0.0000000  0.2921000  0.0823100    0.00000       Uiso       1.00
     xx199          C  0.5000000  0.4237900  0.2639500    0.00000       Uiso       1.00
     xx200          N  0.5000000  0.3222300  0.9374300    0.00000       Uiso       1.00
     xx201          C  0.5000000  0.3276900  0.7640300    0.00000       Uiso       1.00
     xx202          C  0.5000000  0.6448000  0.0426000    0.00000       Uiso       1.00
     xx203          C  0.5000000  0.9610200  0.8681800    0.00000       Uiso       1.00
     xx204          C  0.5000000  0.7921000  0.5823100    0.00000       Uiso       1.00
     xx205          C  0.5000000  0.5762100  0.2639500    0.00000       Uiso       1.00
     xx206          N  0.5000000  0.6777700  0.9374300    0.00000       Uiso       1.00
     xx207          C  0.5000000  0.6723100  0.7640300    0.00000       Uiso       1.00
     xx208          C  0.5000000  0.3552000  0.0426000    0.00000       Uiso       1.00
     xx209          C  0.5000000  0.0389800  0.8681800    0.00000       Uiso       1.00
     xx210          C  0.5000000  0.2079000  0.5823100    0.00000       Uiso       1.00
     xx211          C  0.0000000  0.0762100  0.7639500    0.00000       Uiso       1.00
     xx212          N  0.0000000  0.1777700  0.4374300    0.00000       Uiso       1.00
     xx213          C  0.0000000  0.1723100  0.2640300    0.00000       Uiso       1.00
     xx214          C  0.0000000  0.8552000  0.5426000    0.00000       Uiso       1.00
     xx215          C  0.0000000  0.5389800  0.3681800    0.00000       Uiso       1.00
     xx216          C  0.0000000  0.7079000  0.0823100    0.00000       Uiso       1.00
     xx217          C  0.0762100  0.5000000  0.0139500    0.00000       Uiso       1.00
     xx218          N  0.1777700  0.5000000  0.6874300    0.00000       Uiso       1.00
     xx219          C  0.1723100  0.5000000  0.5140300    0.00000       Uiso       1.00
     xx220          C  0.8552000  0.5000000  0.7926000    0.00000       Uiso       1.00
     xx221          C  0.5389800  0.5000000  0.6181800    0.00000       Uiso       1.00
     xx222          C  0.7079000  0.5000000  0.3323100    0.00000       Uiso       1.00
     xx223          C  0.4237900  0.0000000  0.5139500    0.00000       Uiso       1.00
     xx224          N  0.3222300  0.0000000  0.1874300    0.00000       Uiso       1.00
     xx225          C  0.3276900  0.0000000  0.0140300    0.00000       Uiso       1.00
     xx226          C  0.6448000  0.0000000  0.2926000    0.00000       Uiso       1.00
     xx227          C  0.9610200  0.0000000  0.1181800    0.00000       Uiso       1.00
     xx228          C  0.7921000  0.0000000  0.8323100    0.00000       Uiso       1.00
     xx229          C  0.5000000  0.9237900  0.9860500    0.00000       Uiso       1.00
     xx230          N  0.5000000  0.8222300  0.3125700    0.00000       Uiso       1.00
     xx231          C  0.5000000  0.8276900  0.4859700    0.00000       Uiso       1.00
     xx232          C  0.5000000  0.1448000  0.2074000    0.00000       Uiso       1.00
     xx233          C  0.5000000  0.4610200  0.3818200    0.00000       Uiso       1.00
     xx234          C  0.5000000  0.2921000  0.6676900    0.00000       Uiso       1.00
     xx235          C  0.0000000  0.4237900  0.4860500    0.00000       Uiso       1.00
     xx236          N  0.0000000  0.3222300  0.8125700    0.00000       Uiso       1.00
     xx237          C  0.0000000  0.3276900  0.9859700    0.00000       Uiso       1.00
     xx238          C  0.0000000  0.6448000  0.7074000    0.00000       Uiso       1.00
     xx239          C  0.0000000  0.9610200  0.8818200    0.00000       Uiso       1.00
     xx240          C  0.0000000  0.7921000  0.1676900    0.00000       Uiso       1.00
     xx241          C  0.0000000  0.5762100  0.4860500    0.00000       Uiso       1.00
     xx242          N  0.0000000  0.6777700  0.8125700    0.00000       Uiso       1.00
     xx243          C  0.0000000  0.6723100  0.9859700    0.00000       Uiso       1.00
     xx244          C  0.0000000  0.3552000  0.7074000    0.00000       Uiso       1.00
     xx245          C  0.0000000  0.0389800  0.8818200    0.00000       Uiso       1.00
     xx246          C  0.0000000  0.2079000  0.1676900    0.00000       Uiso       1.00
     xx247          C  0.5000000  0.0762100  0.9860500    0.00000       Uiso       1.00
     xx248          N  0.5000000  0.1777700  0.3125700    0.00000       Uiso       1.00
     xx249          C  0.5000000  0.1723100  0.4859700    0.00000       Uiso       1.00
     xx250          C  0.5000000  0.8552000  0.2074000    0.00000       Uiso       1.00
     xx251          C  0.5000000  0.5389800  0.3818200    0.00000       Uiso       1.00
     xx252          C  0.5000000  0.7079000  0.6676900    0.00000       Uiso       1.00
     xx253          C  0.4237900  0.5000000  0.7360500    0.00000       Uiso       1.00
     xx254          N  0.3222300  0.5000000  0.0625700    0.00000       Uiso       1.00
     xx255          C  0.3276900  0.5000000  0.2359700    0.00000       Uiso       1.00
     xx256          C  0.6448000  0.5000000  0.9574001    0.00000       Uiso       1.00
     xx257          C  0.9610200  0.5000000  0.1318200    0.00000       Uiso       1.00
     xx258          C  0.7921000  0.5000000  0.4176900    0.00000       Uiso       1.00
     xx259          C  0.0762100  0.0000000  0.2360500    0.00000       Uiso       1.00
     xx260          N  0.1777700  0.0000000  0.5625700    0.00000       Uiso       1.00
     xx261          C  0.1723100  0.0000000  0.7359700    0.00000       Uiso       1.00
     xx262          C  0.8552000  0.0000000  0.4574000    0.00000       Uiso       1.00
     xx263          C  0.5389800  0.0000000  0.6318200    0.00000       Uiso       1.00
     xx264          C  0.7079000  0.0000000  0.9176900    0.00000       Uiso       1.00
     xx265          C  0.9237900  0.0000000  0.2360500    0.00000       Uiso       1.00
     xx266          N  0.8222300  0.0000000  0.5625700    0.00000       Uiso       1.00
     xx267          C  0.8276900  0.0000000  0.7359700    0.00000       Uiso       1.00
     xx268          C  0.1448000  0.0000000  0.4574000    0.00000       Uiso       1.00
     xx269          C  0.4610200  0.0000000  0.6318200    0.00000       Uiso       1.00
     xx270          C  0.2921000  0.0000000  0.9176900    0.00000       Uiso       1.00
     xx271          C  0.5762100  0.5000000  0.7360500    0.00000       Uiso       1.00
     xx272          N  0.6777700  0.5000000  0.0625700    0.00000       Uiso       1.00
     xx273          C  0.6723100  0.5000000  0.2359700    0.00000       Uiso       1.00
     xx274          C  0.3552000  0.5000000  0.9574001    0.00000       Uiso       1.00
     xx275          C  0.0389800  0.5000000  0.1318200    0.00000       Uiso       1.00
     xx276          C  0.2079000  0.5000000  0.4176900    0.00000       Uiso       1.00
     xx277          C  0.5762100  0.0000000  0.5139500    0.00000       Uiso       1.00
     xx278          N  0.6777700  0.0000000  0.1874300    0.00000       Uiso       1.00
     xx279          C  0.6723100  0.0000000  0.0140300    0.00000       Uiso       1.00
     xx280          C  0.3552000  0.0000000  0.2926000    0.00000       Uiso       1.00
     xx281          C  0.0389800  0.0000000  0.1181800    0.00000       Uiso       1.00
     xx282          C  0.2079000  0.0000000  0.8323100    0.00000       Uiso       1.00
     xx283          C  0.9237900  0.5000000  0.0139500    0.00000       Uiso       1.00
     xx284          N  0.8222300  0.5000000  0.6874300    0.00000       Uiso       1.00
     xx285          C  0.8276900  0.5000000  0.5140300    0.00000       Uiso       1.00
     xx286          C  0.1448000  0.5000000  0.7926000    0.00000       Uiso       1.00
     xx287          C  0.4610200  0.5000000  0.6181800    0.00000       Uiso       1.00
     xx288          C  0.2921000  0.5000000  0.3323100    0.00000       Uiso       1.00
     xx289          C  0.5387000  0.9613000  0.7500000    0.00000       Uiso       1.00
     xx290          C  0.9613000  0.5387000  0.2500000    0.00000       Uiso       1.00
     xx291          C  0.0387000  0.0387000  0.0000000    0.00000       Uiso       1.00
     xx292          C  0.4613000  0.4613000  0.5000000    0.00000       Uiso       1.00
     xx293          C  0.9613000  0.9613000  0.0000000    0.00000       Uiso       1.00
     xx294          C  0.5387000  0.5387000  0.5000000    0.00000       Uiso       1.00
     xx295          C  0.4613000  0.0387000  0.7500000    0.00000       Uiso       1.00
     xx296          C  0.0387000  0.4613000  0.2500000    0.00000       Uiso       1.00
     xx297          C  0.4613000  0.5387000  0.5000000    0.00000       Uiso       1.00
     xx298          C  0.0387000  0.9613000  0.0000000    0.00000       Uiso       1.00
     xx299          C  0.9613000  0.4613000  0.2500000    0.00000       Uiso       1.00
     xx300          C  0.5387000  0.0387000  0.7500000    0.00000       Uiso       1.00
     xx301          C  0.0387000  0.5387000  0.2500000    0.00000       Uiso       1.00
     xx302          C  0.4613000  0.9613000  0.7500000    0.00000       Uiso       1.00
     xx303          C  0.5387000  0.4613000  0.5000000    0.00000       Uiso       1.00
     xx304          C  0.9613000  0.0387000  0.0000000    0.00000       Uiso       1.00
     xx305          C  0.0000000  0.5000000  0.4827000    0.00000       Uiso       1.00
     xx306          C  0.5000000  0.0000000  0.9827000    0.00000       Uiso       1.00
     xx307          C  0.5000000  0.5000000  0.7327000    0.00000       Uiso       1.00
     xx308          C  0.0000000  0.0000000  0.2327000    0.00000       Uiso       1.00
     xx309          C  0.5000000  0.5000000  0.2673000    0.00000       Uiso       1.00
     xx310          C  0.0000000  0.0000000  0.7673000    0.00000       Uiso       1.00
     xx311          C  0.0000000  0.5000000  0.0173000    0.00000       Uiso       1.00
     xx312          C  0.5000000  0.0000000  0.5173000    0.00000       Uiso       1.00
