data_COF-DL229_non
_audit_creation_date              0000-00-00
_audit_creation_method            'LanYouShi'
_symmetry_space_group_name_H-M    'P1'
_cell_length_a                    30.8700008
_cell_length_b                    30.8700008
_cell_length_c                    60.2900009
_cell_angle_alpha                 90.0000000
_cell_angle_beta                  90.0000000
_cell_angle_gamma                 90.0000000
loop_
_atom_site_label
_atom_site_type_symbol
_atom_site_fract_x
_atom_site_fract_y
_atom_site_fract_z
_atom_site_U_iso_or_equiv
_atom_site_adp_type
_atom_site_occupancy
       xx1          C  0.5391700  0.8667800  0.1970700    0.00000       Uiso       1.00
       xx2          C  0.5392400  0.9019600  0.2116600    0.00000       Uiso       1.00
       xx3          C  0.0392900  0.2322300  0.6178000    0.00000       Uiso       1.00
       xx4          H  0.5711200  0.8523700  0.1911100    0.00000       Uiso       1.00
       xx5          H  0.5712400  0.9167500  0.2172900    0.00000       Uiso       1.00
       xx6          H  0.0712700  0.2177000  0.6119700    0.00000       Uiso       1.00
       xx7          C  0.0391700  0.3667800  0.6970700    0.00000       Uiso       1.00
       xx8          C  0.0392400  0.4019600  0.7116600    0.00000       Uiso       1.00
       xx9          C  0.5392900  0.7322300  0.1178000    0.00000       Uiso       1.00
      xx10          H  0.0711200  0.3523700  0.6911100    0.00000       Uiso       1.00
      xx11          H  0.0712400  0.4167500  0.7172900    0.00000       Uiso       1.00
      xx12          H  0.5712700  0.7177000  0.1119700    0.00000       Uiso       1.00
      xx13          C  0.9608300  0.6332200  0.6970700    0.00000       Uiso       1.00
      xx14          C  0.9607600  0.5980400  0.7116600    0.00000       Uiso       1.00
      xx15          C  0.4607100  0.2677700  0.1178000    0.00000       Uiso       1.00
      xx16          H  0.9288800  0.6476300  0.6911100    0.00000       Uiso       1.00
      xx17          H  0.9287600  0.5832500  0.7172900    0.00000       Uiso       1.00
      xx18          H  0.4287300  0.2823000  0.1119700    0.00000       Uiso       1.00
      xx19          C  0.4608300  0.1332200  0.1970700    0.00000       Uiso       1.00
      xx20          C  0.4607600  0.0980400  0.2116600    0.00000       Uiso       1.00
      xx21          C  0.9607100  0.7677701  0.6178000    0.00000       Uiso       1.00
      xx22          H  0.4288800  0.1476300  0.1911100    0.00000       Uiso       1.00
      xx23          H  0.4287600  0.0832500  0.2172900    0.00000       Uiso       1.00
      xx24          H  0.9287300  0.7823000  0.6119700    0.00000       Uiso       1.00
      xx25          C  0.1332200  0.0391700  0.4470700    0.00000       Uiso       1.00
      xx26          C  0.0980400  0.0392400  0.4616600    0.00000       Uiso       1.00
      xx27          C  0.7677701  0.5392900  0.8678000    0.00000       Uiso       1.00
      xx28          H  0.1476300  0.0711200  0.4411100    0.00000       Uiso       1.00
      xx29          H  0.0832500  0.0712400  0.4672900    0.00000       Uiso       1.00
      xx30          H  0.7823000  0.5712700  0.8619700    0.00000       Uiso       1.00
      xx31          C  0.6332200  0.5391700  0.9470700    0.00000       Uiso       1.00
      xx32          C  0.5980400  0.5392400  0.9616600    0.00000       Uiso       1.00
      xx33          C  0.2677700  0.0392900  0.3678000    0.00000       Uiso       1.00
      xx34          H  0.6476300  0.5711200  0.9411100    0.00000       Uiso       1.00
      xx35          H  0.5832500  0.5712400  0.9672900    0.00000       Uiso       1.00
      xx36          H  0.2823000  0.0712700  0.3619700    0.00000       Uiso       1.00
      xx37          C  0.3667800  0.4608300  0.9470700    0.00000       Uiso       1.00
      xx38          C  0.4019600  0.4607600  0.9616600    0.00000       Uiso       1.00
      xx39          C  0.7322300  0.9607100  0.3678000    0.00000       Uiso       1.00
      xx40          H  0.3523700  0.4288800  0.9411100    0.00000       Uiso       1.00
      xx41          H  0.4167500  0.4287600  0.9672900    0.00000       Uiso       1.00
      xx42          H  0.7177000  0.9287300  0.3619700    0.00000       Uiso       1.00
      xx43          C  0.8667800  0.9608300  0.4470700    0.00000       Uiso       1.00
      xx44          C  0.9019600  0.9607600  0.4616600    0.00000       Uiso       1.00
      xx45          C  0.2322300  0.4607100  0.8678000    0.00000       Uiso       1.00
      xx46          H  0.8523700  0.9288800  0.4411100    0.00000       Uiso       1.00
      xx47          H  0.9167500  0.9287600  0.4672900    0.00000       Uiso       1.00
      xx48          H  0.2177000  0.4287300  0.8619700    0.00000       Uiso       1.00
      xx49          C  0.9608300  0.8667800  0.5529300    0.00000       Uiso       1.00
      xx50          C  0.9607600  0.9019600  0.5383400    0.00000       Uiso       1.00
      xx51          C  0.4607100  0.2322300  0.1322000    0.00000       Uiso       1.00
      xx52          H  0.9288800  0.8523700  0.5588900    0.00000       Uiso       1.00
      xx53          H  0.9287600  0.9167500  0.5327100    0.00000       Uiso       1.00
      xx54          H  0.4287300  0.2177000  0.1380300    0.00000       Uiso       1.00
      xx55          C  0.4608300  0.3667800  0.0529300    0.00000       Uiso       1.00
      xx56          C  0.4607600  0.4019600  0.0383400    0.00000       Uiso       1.00
      xx57          C  0.9607100  0.7322300  0.6322000    0.00000       Uiso       1.00
      xx58          H  0.4288800  0.3523700  0.0588900    0.00000       Uiso       1.00
      xx59          H  0.4287600  0.4167500  0.0327100    0.00000       Uiso       1.00
      xx60          H  0.9287300  0.7177000  0.6380300    0.00000       Uiso       1.00
      xx61          C  0.5391700  0.6332200  0.0529300    0.00000       Uiso       1.00
      xx62          C  0.5392400  0.5980400  0.0383400    0.00000       Uiso       1.00
      xx63          C  0.0392900  0.2677700  0.6322000    0.00000       Uiso       1.00
      xx64          H  0.5711200  0.6476300  0.0588900    0.00000       Uiso       1.00
      xx65          H  0.5712400  0.5832500  0.0327100    0.00000       Uiso       1.00
      xx66          H  0.0712700  0.2823000  0.6380300    0.00000       Uiso       1.00
      xx67          C  0.0391700  0.1332200  0.5529300    0.00000       Uiso       1.00
      xx68          C  0.0392400  0.0980400  0.5383400    0.00000       Uiso       1.00
      xx69          C  0.5392900  0.7677701  0.1322000    0.00000       Uiso       1.00
      xx70          H  0.0711200  0.1476300  0.5588900    0.00000       Uiso       1.00
      xx71          H  0.0712400  0.0832500  0.5327100    0.00000       Uiso       1.00
      xx72          H  0.5712700  0.7823000  0.1380300    0.00000       Uiso       1.00
      xx73          C  0.3667800  0.0391700  0.3029300    0.00000       Uiso       1.00
      xx74          C  0.4019600  0.0392400  0.2883400    0.00000       Uiso       1.00
      xx75          C  0.7322300  0.5392900  0.8822000    0.00000       Uiso       1.00
      xx76          H  0.3523700  0.0711200  0.3088900    0.00000       Uiso       1.00
      xx77          H  0.4167500  0.0712400  0.2827100    0.00000       Uiso       1.00
      xx78          H  0.7177000  0.5712700  0.8880300    0.00000       Uiso       1.00
      xx79          C  0.8667800  0.5391700  0.8029300    0.00000       Uiso       1.00
      xx80          C  0.9019600  0.5392400  0.7883400    0.00000       Uiso       1.00
      xx81          C  0.2322300  0.0392900  0.3822000    0.00000       Uiso       1.00
      xx82          H  0.8523700  0.5711200  0.8088900    0.00000       Uiso       1.00
      xx83          H  0.9167500  0.5712400  0.7827100    0.00000       Uiso       1.00
      xx84          H  0.2177000  0.0712700  0.3880300    0.00000       Uiso       1.00
      xx85          C  0.1332200  0.4608300  0.8029300    0.00000       Uiso       1.00
      xx86          C  0.0980400  0.4607600  0.7883400    0.00000       Uiso       1.00
      xx87          C  0.7677701  0.9607100  0.3822000    0.00000       Uiso       1.00
      xx88          H  0.1476300  0.4288800  0.8088900    0.00000       Uiso       1.00
      xx89          H  0.0832500  0.4287600  0.7827100    0.00000       Uiso       1.00
      xx90          H  0.7823000  0.9287300  0.3880300    0.00000       Uiso       1.00
      xx91          C  0.6332200  0.9608300  0.3029300    0.00000       Uiso       1.00
      xx92          C  0.5980400  0.9607600  0.2883400    0.00000       Uiso       1.00
      xx93          C  0.2677700  0.4607100  0.8822000    0.00000       Uiso       1.00
      xx94          H  0.6476300  0.9288800  0.3088900    0.00000       Uiso       1.00
      xx95          H  0.5832500  0.9287600  0.2827100    0.00000       Uiso       1.00
      xx96          H  0.2823000  0.4287300  0.8880300    0.00000       Uiso       1.00
      xx97          C  0.4608300  0.6332200  0.0529300    0.00000       Uiso       1.00
      xx98          C  0.4607600  0.5980400  0.0383400    0.00000       Uiso       1.00
      xx99          C  0.9607100  0.2677700  0.6322000    0.00000       Uiso       1.00
     xx100          H  0.4288800  0.6476300  0.0588900    0.00000       Uiso       1.00
     xx101          H  0.4287600  0.5832500  0.0327100    0.00000       Uiso       1.00
     xx102          H  0.9287300  0.2823000  0.6380300    0.00000       Uiso       1.00
     xx103          C  0.9608300  0.1332200  0.5529300    0.00000       Uiso       1.00
     xx104          C  0.9607600  0.0980400  0.5383400    0.00000       Uiso       1.00
     xx105          C  0.4607100  0.7677701  0.1322000    0.00000       Uiso       1.00
     xx106          H  0.9288800  0.1476300  0.5588900    0.00000       Uiso       1.00
     xx107          H  0.9287600  0.0832500  0.5327100    0.00000       Uiso       1.00
     xx108          H  0.4287300  0.7823000  0.1380300    0.00000       Uiso       1.00
     xx109          C  0.0391700  0.8667800  0.5529300    0.00000       Uiso       1.00
     xx110          C  0.0392400  0.9019600  0.5383400    0.00000       Uiso       1.00
     xx111          C  0.5392900  0.2322300  0.1322000    0.00000       Uiso       1.00
     xx112          H  0.0711200  0.8523700  0.5588900    0.00000       Uiso       1.00
     xx113          H  0.0712400  0.9167500  0.5327100    0.00000       Uiso       1.00
     xx114          H  0.5712700  0.2177000  0.1380300    0.00000       Uiso       1.00
     xx115          C  0.5391700  0.3667800  0.0529300    0.00000       Uiso       1.00
     xx116          C  0.5392400  0.4019600  0.0383400    0.00000       Uiso       1.00
     xx117          C  0.0392900  0.7322300  0.6322000    0.00000       Uiso       1.00
     xx118          H  0.5711200  0.3523700  0.0588900    0.00000       Uiso       1.00
     xx119          H  0.5712400  0.4167500  0.0327100    0.00000       Uiso       1.00
     xx120          H  0.0712700  0.7177000  0.6380300    0.00000       Uiso       1.00
     xx121          C  0.8667800  0.4608300  0.8029300    0.00000       Uiso       1.00
     xx122          C  0.9019600  0.4607600  0.7883400    0.00000       Uiso       1.00
     xx123          C  0.2322300  0.9607100  0.3822000    0.00000       Uiso       1.00
     xx124          H  0.8523700  0.4288800  0.8088900    0.00000       Uiso       1.00
     xx125          H  0.9167500  0.4287600  0.7827100    0.00000       Uiso       1.00
     xx126          H  0.2177000  0.9287300  0.3880300    0.00000       Uiso       1.00
     xx127          C  0.3667800  0.9608300  0.3029300    0.00000       Uiso       1.00
     xx128          C  0.4019600  0.9607600  0.2883400    0.00000       Uiso       1.00
     xx129          C  0.7322300  0.4607100  0.8822000    0.00000       Uiso       1.00
     xx130          H  0.3523700  0.9288800  0.3088900    0.00000       Uiso       1.00
     xx131          H  0.4167500  0.9287600  0.2827100    0.00000       Uiso       1.00
     xx132          H  0.7177000  0.4287300  0.8880300    0.00000       Uiso       1.00
     xx133          C  0.6332200  0.0391700  0.3029300    0.00000       Uiso       1.00
     xx134          C  0.5980400  0.0392400  0.2883400    0.00000       Uiso       1.00
     xx135          C  0.2677700  0.5392900  0.8822000    0.00000       Uiso       1.00
     xx136          H  0.6476300  0.0711200  0.3088900    0.00000       Uiso       1.00
     xx137          H  0.5832500  0.0712400  0.2827100    0.00000       Uiso       1.00
     xx138          H  0.2823000  0.5712700  0.8880300    0.00000       Uiso       1.00
     xx139          C  0.1332200  0.5391700  0.8029300    0.00000       Uiso       1.00
     xx140          C  0.0980400  0.5392400  0.7883400    0.00000       Uiso       1.00
     xx141          C  0.7677701  0.0392900  0.3822000    0.00000       Uiso       1.00
     xx142          H  0.1476300  0.5711200  0.8088900    0.00000       Uiso       1.00
     xx143          H  0.0832500  0.5712400  0.7827100    0.00000       Uiso       1.00
     xx144          H  0.7823000  0.0712700  0.3880300    0.00000       Uiso       1.00
     xx145          C  0.0391700  0.6332200  0.6970700    0.00000       Uiso       1.00
     xx146          C  0.0392400  0.5980400  0.7116600    0.00000       Uiso       1.00
     xx147          C  0.5392900  0.2677700  0.1178000    0.00000       Uiso       1.00
     xx148          H  0.0711200  0.6476300  0.6911100    0.00000       Uiso       1.00
     xx149          H  0.0712400  0.5832500  0.7172900    0.00000       Uiso       1.00
     xx150          H  0.5712700  0.2823000  0.1119700    0.00000       Uiso       1.00
     xx151          C  0.5391700  0.1332200  0.1970700    0.00000       Uiso       1.00
     xx152          C  0.5392400  0.0980400  0.2116600    0.00000       Uiso       1.00
     xx153          C  0.0392900  0.7677701  0.6178000    0.00000       Uiso       1.00
     xx154          H  0.5711200  0.1476300  0.1911100    0.00000       Uiso       1.00
     xx155          H  0.5712400  0.0832500  0.2172900    0.00000       Uiso       1.00
     xx156          H  0.0712700  0.7823000  0.6119700    0.00000       Uiso       1.00
     xx157          C  0.4608300  0.8667800  0.1970700    0.00000       Uiso       1.00
     xx158          C  0.4607600  0.9019600  0.2116600    0.00000       Uiso       1.00
     xx159          C  0.9607100  0.2322300  0.6178000    0.00000       Uiso       1.00
     xx160          H  0.4288800  0.8523700  0.1911100    0.00000       Uiso       1.00
     xx161          H  0.4287600  0.9167500  0.2172900    0.00000       Uiso       1.00
     xx162          H  0.9287300  0.2177000  0.6119700    0.00000       Uiso       1.00
     xx163          C  0.9608300  0.3667800  0.6970700    0.00000       Uiso       1.00
     xx164          C  0.9607600  0.4019600  0.7116600    0.00000       Uiso       1.00
     xx165          C  0.4607100  0.7322300  0.1178000    0.00000       Uiso       1.00
     xx166          H  0.9288800  0.3523700  0.6911100    0.00000       Uiso       1.00
     xx167          H  0.9287600  0.4167500  0.7172900    0.00000       Uiso       1.00
     xx168          H  0.4287300  0.7177000  0.1119700    0.00000       Uiso       1.00
     xx169          C  0.6332200  0.4608300  0.9470700    0.00000       Uiso       1.00
     xx170          C  0.5980400  0.4607600  0.9616600    0.00000       Uiso       1.00
     xx171          C  0.2677700  0.9607100  0.3678000    0.00000       Uiso       1.00
     xx172          H  0.6476300  0.4288800  0.9411100    0.00000       Uiso       1.00
     xx173          H  0.5832500  0.4287600  0.9672900    0.00000       Uiso       1.00
     xx174          H  0.2823000  0.9287300  0.3619700    0.00000       Uiso       1.00
     xx175          C  0.1332200  0.9608300  0.4470700    0.00000       Uiso       1.00
     xx176          C  0.0980400  0.9607600  0.4616600    0.00000       Uiso       1.00
     xx177          C  0.7677701  0.4607100  0.8678000    0.00000       Uiso       1.00
     xx178          H  0.1476300  0.9288800  0.4411100    0.00000       Uiso       1.00
     xx179          H  0.0832500  0.9287600  0.4672900    0.00000       Uiso       1.00
     xx180          H  0.7823000  0.4287300  0.8619700    0.00000       Uiso       1.00
     xx181          C  0.8667800  0.0391700  0.4470700    0.00000       Uiso       1.00
     xx182          C  0.9019600  0.0392400  0.4616600    0.00000       Uiso       1.00
     xx183          C  0.2322300  0.5392900  0.8678000    0.00000       Uiso       1.00
     xx184          H  0.8523700  0.0711200  0.4411100    0.00000       Uiso       1.00
     xx185          H  0.9167500  0.0712400  0.4672900    0.00000       Uiso       1.00
     xx186          H  0.2177000  0.5712700  0.8619700    0.00000       Uiso       1.00
     xx187          C  0.3667800  0.5391700  0.9470700    0.00000       Uiso       1.00
     xx188          C  0.4019600  0.5392400  0.9616600    0.00000       Uiso       1.00
     xx189          C  0.7322300  0.0392900  0.3678000    0.00000       Uiso       1.00
     xx190          H  0.3523700  0.5711200  0.9411100    0.00000       Uiso       1.00
     xx191          H  0.4167500  0.5712400  0.9672900    0.00000       Uiso       1.00
     xx192          H  0.7177000  0.0712700  0.3619700    0.00000       Uiso       1.00
     xx193          C  0.5000000  0.9196300  0.2196000    0.00000       Uiso       1.00
     xx194          N  0.5000000  0.8149300  0.1757900    0.00000       Uiso       1.00
     xx195          C  0.5000000  0.8208900  0.1536300    0.00000       Uiso       1.00
     xx196          C  0.5000000  0.1508800  0.1897200    0.00000       Uiso       1.00
     xx197          C  0.0000000  0.4196300  0.7196000    0.00000       Uiso       1.00
     xx198          N  0.0000000  0.3149300  0.6757900    0.00000       Uiso       1.00
     xx199          C  0.0000000  0.3208900  0.6536301    0.00000       Uiso       1.00
     xx200          C  0.0000000  0.6508800  0.6897200    0.00000       Uiso       1.00
     xx201          C  0.0000000  0.5803700  0.7196000    0.00000       Uiso       1.00
     xx202          N  0.0000000  0.6850700  0.6757900    0.00000       Uiso       1.00
     xx203          C  0.0000000  0.6791100  0.6536301    0.00000       Uiso       1.00
     xx204          C  0.0000000  0.3491200  0.6897200    0.00000       Uiso       1.00
     xx205          C  0.5000000  0.0803700  0.2196000    0.00000       Uiso       1.00
     xx206          N  0.5000000  0.1850700  0.1757900    0.00000       Uiso       1.00
     xx207          C  0.5000000  0.1791100  0.1536300    0.00000       Uiso       1.00
     xx208          C  0.5000000  0.8491200  0.1897200    0.00000       Uiso       1.00
     xx209          C  0.0803700  0.0000000  0.4696000    0.00000       Uiso       1.00
     xx210          N  0.1850700  0.0000000  0.4257900    0.00000       Uiso       1.00
     xx211          C  0.1791100  0.0000000  0.4036300    0.00000       Uiso       1.00
     xx212          C  0.8491200  0.0000000  0.4397200    0.00000       Uiso       1.00
     xx213          C  0.5803700  0.5000000  0.9696000    0.00000       Uiso       1.00
     xx214          N  0.6850700  0.5000000  0.9257900    0.00000       Uiso       1.00
     xx215          C  0.6791100  0.5000000  0.9036300    0.00000       Uiso       1.00
     xx216          C  0.3491200  0.5000000  0.9397200    0.00000       Uiso       1.00
     xx217          C  0.4196300  0.5000000  0.9696000    0.00000       Uiso       1.00
     xx218          N  0.3149300  0.5000000  0.9257900    0.00000       Uiso       1.00
     xx219          C  0.3208900  0.5000000  0.9036300    0.00000       Uiso       1.00
     xx220          C  0.6508800  0.5000000  0.9397200    0.00000       Uiso       1.00
     xx221          C  0.0000000  0.9196300  0.5304000    0.00000       Uiso       1.00
     xx222          N  0.0000000  0.8149300  0.5742100    0.00000       Uiso       1.00
     xx223          C  0.0000000  0.8208900  0.5963700    0.00000       Uiso       1.00
     xx224          C  0.0000000  0.1508800  0.5602800    0.00000       Uiso       1.00
     xx225          C  0.5000000  0.4196300  0.0304000    0.00000       Uiso       1.00
     xx226          N  0.5000000  0.3149300  0.0742100    0.00000       Uiso       1.00
     xx227          C  0.5000000  0.3208900  0.0963700    0.00000       Uiso       1.00
     xx228          C  0.5000000  0.6508800  0.0602800    0.00000       Uiso       1.00
     xx229          C  0.5000000  0.5803700  0.0304000    0.00000       Uiso       1.00
     xx230          N  0.5000000  0.6850700  0.0742100    0.00000       Uiso       1.00
     xx231          C  0.5000000  0.6791100  0.0963700    0.00000       Uiso       1.00
     xx232          C  0.5000000  0.3491200  0.0602800    0.00000       Uiso       1.00
     xx233          C  0.0000000  0.0803700  0.5304000    0.00000       Uiso       1.00
     xx234          N  0.0000000  0.1850700  0.5742100    0.00000       Uiso       1.00
     xx235          C  0.0000000  0.1791100  0.5963700    0.00000       Uiso       1.00
     xx236          C  0.0000000  0.8491200  0.5602800    0.00000       Uiso       1.00
     xx237          C  0.4196300  0.0000000  0.2804000    0.00000       Uiso       1.00
     xx238          N  0.3149300  0.0000000  0.3242100    0.00000       Uiso       1.00
     xx239          C  0.3208900  0.0000000  0.3463700    0.00000       Uiso       1.00
     xx240          C  0.6508800  0.0000000  0.3102800    0.00000       Uiso       1.00
     xx241          C  0.0803700  0.5000000  0.7804000    0.00000       Uiso       1.00
     xx242          N  0.1850700  0.5000000  0.8242100    0.00000       Uiso       1.00
     xx243          C  0.1791100  0.5000000  0.8463699    0.00000       Uiso       1.00
     xx244          C  0.8491200  0.5000000  0.8102800    0.00000       Uiso       1.00
     xx245          C  0.9196300  0.5000000  0.7804000    0.00000       Uiso       1.00
     xx246          N  0.8149300  0.5000000  0.8242100    0.00000       Uiso       1.00
     xx247          C  0.8208900  0.5000000  0.8463699    0.00000       Uiso       1.00
     xx248          C  0.1508800  0.5000000  0.8102800    0.00000       Uiso       1.00
     xx249          C  0.5803700  0.0000000  0.2804000    0.00000       Uiso       1.00
     xx250          N  0.6850700  0.0000000  0.3242100    0.00000       Uiso       1.00
     xx251          C  0.6791100  0.0000000  0.3463700    0.00000       Uiso       1.00
     xx252          C  0.3491200  0.0000000  0.3102800    0.00000       Uiso       1.00
     xx253          C  0.9196300  0.0000000  0.4696000    0.00000       Uiso       1.00
     xx254          N  0.8149300  0.0000000  0.4257900    0.00000       Uiso       1.00
     xx255          C  0.8208900  0.0000000  0.4036300    0.00000       Uiso       1.00
     xx256          C  0.1508800  0.0000000  0.4397200    0.00000       Uiso       1.00
     xx257          C  0.0000000  0.9590100  0.5151200    0.00000       Uiso       1.00
     xx258          C  0.0000000  0.7855700  0.6105300    0.00000       Uiso       1.00
     xx259          C  0.5000000  0.4590100  0.0151200    0.00000       Uiso       1.00
     xx260          C  0.5000000  0.2855700  0.1105300    0.00000       Uiso       1.00
     xx261          C  0.5000000  0.5409900  0.0151200    0.00000       Uiso       1.00
     xx262          C  0.5000000  0.7144300  0.1105300    0.00000       Uiso       1.00
     xx263          C  0.0000000  0.0409900  0.5151200    0.00000       Uiso       1.00
     xx264          C  0.0000000  0.2144300  0.6105300    0.00000       Uiso       1.00
     xx265          C  0.0409900  0.5000000  0.7651200    0.00000       Uiso       1.00
     xx266          C  0.2144300  0.5000000  0.8605300    0.00000       Uiso       1.00
     xx267          C  0.4590100  0.0000000  0.2651200    0.00000       Uiso       1.00
     xx268          C  0.2855700  0.0000000  0.3605300    0.00000       Uiso       1.00
     xx269          C  0.5000000  0.9590100  0.2348800    0.00000       Uiso       1.00
     xx270          C  0.5000000  0.7855700  0.1394700    0.00000       Uiso       1.00
     xx271          C  0.0000000  0.4590100  0.7348800    0.00000       Uiso       1.00
     xx272          C  0.0000000  0.2855700  0.6394700    0.00000       Uiso       1.00
     xx273          C  0.0000000  0.5409900  0.7348800    0.00000       Uiso       1.00
     xx274          C  0.0000000  0.7144300  0.6394700    0.00000       Uiso       1.00
     xx275          C  0.5000000  0.0409900  0.2348800    0.00000       Uiso       1.00
     xx276          C  0.5000000  0.2144300  0.1394700    0.00000       Uiso       1.00
     xx277          C  0.4590100  0.5000000  0.9848800    0.00000       Uiso       1.00
     xx278          C  0.2855700  0.5000000  0.8894700    0.00000       Uiso       1.00
     xx279          C  0.0409900  0.0000000  0.4848800    0.00000       Uiso       1.00
     xx280          C  0.2144300  0.0000000  0.3894700    0.00000       Uiso       1.00
     xx281          C  0.5409900  0.5000000  0.9848800    0.00000       Uiso       1.00
     xx282          C  0.7144300  0.5000000  0.8894700    0.00000       Uiso       1.00
     xx283          C  0.9590100  0.0000000  0.4848800    0.00000       Uiso       1.00
     xx284          C  0.7855700  0.0000000  0.3894700    0.00000       Uiso       1.00
     xx285          C  0.5409900  0.0000000  0.2651200    0.00000       Uiso       1.00
     xx286          C  0.7144300  0.0000000  0.3605300    0.00000       Uiso       1.00
     xx287          C  0.9590100  0.5000000  0.7651200    0.00000       Uiso       1.00
     xx288          C  0.7855700  0.5000000  0.8605300    0.00000       Uiso       1.00
     xx289          C  0.0403500  0.9596500  0.5000000    0.00000       Uiso       1.00
     xx290          C  0.5403500  0.4596500  0.0000000    0.00000       Uiso       1.00
     xx291          C  0.4596500  0.5403500  0.0000000    0.00000       Uiso       1.00
     xx292          C  0.9596500  0.0403500  0.5000000    0.00000       Uiso       1.00
     xx293          C  0.0403500  0.5403500  0.7499999    0.00000       Uiso       1.00
     xx294          C  0.5403500  0.0403500  0.2500000    0.00000       Uiso       1.00
     xx295          C  0.4596500  0.9596500  0.2500000    0.00000       Uiso       1.00
     xx296          C  0.9596500  0.4596500  0.7499999    0.00000       Uiso       1.00
     xx297          C  0.9596500  0.5403500  0.7499999    0.00000       Uiso       1.00
     xx298          C  0.4596500  0.0403500  0.2500000    0.00000       Uiso       1.00
     xx299          C  0.5403500  0.9596500  0.2500000    0.00000       Uiso       1.00
     xx300          C  0.0403500  0.4596500  0.7499999    0.00000       Uiso       1.00
     xx301          C  0.9596500  0.9596500  0.5000000    0.00000       Uiso       1.00
     xx302          C  0.4596500  0.4596500  0.0000000    0.00000       Uiso       1.00
     xx303          C  0.5403500  0.5403500  0.0000000    0.00000       Uiso       1.00
     xx304          C  0.0403500  0.0403500  0.5000000    0.00000       Uiso       1.00
     xx305          C  0.0000000  0.0000000  0.5295400    0.00000       Uiso       1.00
     xx306          C  0.5000000  0.5000000  0.0295400    0.00000       Uiso       1.00
     xx307          C  0.0000000  0.5000000  0.7795400    0.00000       Uiso       1.00
     xx308          C  0.5000000  0.0000000  0.2795400    0.00000       Uiso       1.00
     xx309          C  0.5000000  0.0000000  0.2204600    0.00000       Uiso       1.00
     xx310          C  0.0000000  0.5000000  0.7204600    0.00000       Uiso       1.00
     xx311          C  0.5000000  0.5000000  0.9704600    0.00000       Uiso       1.00
     xx312          C  0.0000000  0.0000000  0.4704600    0.00000       Uiso       1.00
