data_COF-JLU2
_audit_creation_date              0000-00-00
_audit_creation_method            'LanYouShi'
_symmetry_space_group_name_H-M    'P1'
_cell_length_a                    15.4975004
_cell_length_b                    15.4975004
_cell_length_c                    3.5999999
_cell_angle_alpha                 90.0000000
_cell_angle_beta                  90.0000000
_cell_angle_gamma                 120.0000000
loop_
_atom_site_label
_atom_site_type_symbol
_atom_site_fract_x
_atom_site_fract_y
_atom_site_fract_z
_atom_site_U_iso_or_equiv
_atom_site_adp_type
_atom_site_occupancy
        N1          N  0.0453380  0.5397860  0.5000000    0.00000       Uiso       1.00
        N2          N  0.4602140  0.5055510  0.5000000    0.00000       Uiso       1.00
        N3          N  0.4944490  0.9546620  0.5000000    0.00000       Uiso       1.00
        N4          N  0.9546620  0.4602140  0.5000000    0.00000       Uiso       1.00
        N5          N  0.5397860  0.4944490  0.5000000    0.00000       Uiso       1.00
        N6          N  0.5055510  0.0453380  0.5000000    0.00000       Uiso       1.00
        C7          C  0.1322890  0.5378110  0.5000000    0.00000       Uiso       1.00
        C8          C  0.4621890  0.5944780  0.5000000    0.00000       Uiso       1.00
        C9          C  0.4055220  0.8677110  0.5000000    0.00000       Uiso       1.00
       C10          C  0.8677110  0.4621890  0.5000000    0.00000       Uiso       1.00
       C11          C  0.5378110  0.4055220  0.5000000    0.00000       Uiso       1.00
       C12          C  0.5944780  0.1322890  0.5000000    0.00000       Uiso       1.00
       H13          H  0.1306370  0.4634390  0.5000000    0.00000       Uiso       1.00
       H14          H  0.5365610  0.6671980  0.5000000    0.00000       Uiso       1.00
       H15          H  0.3328020  0.8693630  0.5000000    0.00000       Uiso       1.00
       H16          H  0.8693630  0.5365610  0.5000000    0.00000       Uiso       1.00
       H17          H  0.4634390  0.3328020  0.5000000    0.00000       Uiso       1.00
       H18          H  0.6671980  0.1306370  0.5000000    0.00000       Uiso       1.00
       H19          H  0.0469460  0.6122020  0.5000000    0.00000       Uiso       1.00
       H20          H  0.3877980  0.4347450  0.5000000    0.00000       Uiso       1.00
       H21          H  0.5652550  0.9530540  0.5000000    0.00000       Uiso       1.00
       H22          H  0.9530540  0.3877980  0.5000000    0.00000       Uiso       1.00
       H23          H  0.6122020  0.5652550  0.5000000    0.00000       Uiso       1.00
       H24          H  0.4347450  0.0469460  0.5000000    0.00000       Uiso       1.00
       C25          C  0.2994160  0.5642670  0.5000000    0.00000       Uiso       1.00
       C26          C  0.2285230  0.5966139  0.5000000    0.00000       Uiso       1.00
       C27          C  0.4357330  0.7351490  0.5000000    0.00000       Uiso       1.00
       C28          C  0.4033860  0.6319090  0.5000000    0.00000       Uiso       1.00
       C29          C  0.2648510  0.7005840  0.5000000    0.00000       Uiso       1.00
       C30          C  0.3680910  0.7714769  0.5000000    0.00000       Uiso       1.00
       C31          C  0.7005840  0.4357330  0.5000000    0.00000       Uiso       1.00
       C32          C  0.7714770  0.4033860  0.5000000    0.00000       Uiso       1.00
       C33          C  0.5642670  0.2648510  0.5000000    0.00000       Uiso       1.00
       C34          C  0.5966140  0.3680910  0.5000000    0.00000       Uiso       1.00
       C35          C  0.7351490  0.2994160  0.5000000    0.00000       Uiso       1.00
       C36          C  0.6319090  0.2285230  0.5000000    0.00000       Uiso       1.00
       O37          O  0.2730200  0.4801490  0.5000000    0.00000       Uiso       1.00
       O38          O  0.5198510  0.7928700  0.5000000    0.00000       Uiso       1.00
       O39          O  0.2071290  0.7269800  0.5000000    0.00000       Uiso       1.00
       O40          O  0.7269800  0.5198510  0.5000000    0.00000       Uiso       1.00
       O41          O  0.4801490  0.2071290  0.5000000    0.00000       Uiso       1.00
       O42          O  0.7928700  0.2730200  0.5000000    0.00000       Uiso       1.00
