data_COF-TpAzo
_audit_creation_date              0000-00-00
_audit_creation_method            'LanYouShi'
_symmetry_space_group_name_H-M    'P1'
_cell_length_a                    31.8577995
_cell_length_b                    31.8577995
_cell_length_c                    3.5999999
_cell_angle_alpha                 90.0000000
_cell_angle_beta                  90.0000000
_cell_angle_gamma                 60.0000000
loop_
_atom_site_label
_atom_site_type_symbol
_atom_site_fract_x
_atom_site_fract_y
_atom_site_fract_z
_atom_site_U_iso_or_equiv
_atom_site_adp_type
_atom_site_occupancy
        N1          N  0.6159380  0.5844190  1.3888890    0.00000       Uiso       1.00
        C2          C  0.6050080  0.6303230  1.3888890    0.00000       Uiso       1.00
        C3          C  0.5841330  0.5693590  1.3888890    0.00000       Uiso       1.00
        C4          C  0.5378760  0.5985321  1.3888890    0.00000       Uiso       1.00
        C5          C  0.5086130  0.5819420  1.3888890    0.00000       Uiso       1.00
        C6          C  0.5246790  0.5363170  1.3888890    0.00000       Uiso       1.00
        C7          C  0.5705810  0.5070830  1.3888890    0.00000       Uiso       1.00
        C8          C  0.5999330  0.5235050  1.3888890    0.00000       Uiso       1.00
        H9          H  0.5703170  0.6551050  1.3888890    0.00000       Uiso       1.00
       H10          H  0.5235400  0.6339760  1.3888890    0.00000       Uiso       1.00
       H11          H  0.6488130  0.5591580  1.3888890    0.00000       Uiso       1.00
       H12          H  0.6352430  0.5003470  1.3888890    0.00000       Uiso       1.00
       H13          H  0.4731950  0.6045750  1.3888890    0.00000       Uiso       1.00
       H14          H  0.5834450  0.4716660  1.3888890    0.00000       Uiso       1.00
       N15          N  0.3840620  0.4155810  1.3888890    0.00000       Uiso       1.00
       C16          C  0.3949920  0.3696770  1.3888890    0.00000       Uiso       1.00
       C17          C  0.4158670  0.4306410  1.3888890    0.00000       Uiso       1.00
       C18          C  0.4621240  0.4014680  1.3888890    0.00000       Uiso       1.00
       C19          C  0.4913870  0.4180580  1.3888890    0.00000       Uiso       1.00
       C20          C  0.4753210  0.4636840  1.3888890    0.00000       Uiso       1.00
       C21          C  0.4294200  0.4929170  1.3888890    0.00000       Uiso       1.00
       C22          C  0.4000680  0.4764950  1.3888890    0.00000       Uiso       1.00
       H23          H  0.4296840  0.3448950  1.3888890    0.00000       Uiso       1.00
       H24          H  0.4764600  0.3660240  1.3888890    0.00000       Uiso       1.00
       H25          H  0.3511870  0.4408420  1.3888890    0.00000       Uiso       1.00
       H26          H  0.3647570  0.4996530  1.3888890    0.00000       Uiso       1.00
       H27          H  0.5268050  0.3954250  1.3888890    0.00000       Uiso       1.00
       H28          H  0.4165560  0.5283350  1.3888890    0.00000       Uiso       1.00
       N29          N  0.4937650  0.5205850  1.3888890    0.00000       Uiso       1.00
       N30          N  0.5062360  0.4794150  1.3888890    0.00000       Uiso       1.00
       N31          N  0.7996429  0.6159380  1.3888890    0.00000       Uiso       1.00
       C32          C  0.7646690  0.6050080  1.3888890    0.00000       Uiso       1.00
       C33          C  0.8465080  0.5841330  1.3888890    0.00000       Uiso       1.00
       C34          C  0.8635920  0.5378760  1.3888890    0.00000       Uiso       1.00
       C35          C  0.9094450  0.5086130  1.3888890    0.00000       Uiso       1.00
       C36          C  0.9390050  0.5246790  1.3888890    0.00000       Uiso       1.00
       C37          C  0.9223360  0.5705810  1.3888890    0.00000       Uiso       1.00
       C38          C  0.8765631  0.5999330  1.3888890    0.00000       Uiso       1.00
       H39          H  0.7745780  0.5703170  1.3888890    0.00000       Uiso       1.00
       H40          H  0.8424841  0.5235400  1.3888890    0.00000       Uiso       1.00
       H41          H  0.7920290  0.6488131  1.3888890    0.00000       Uiso       1.00
       H42          H  0.8644100  0.6352430  1.3888890    0.00000       Uiso       1.00
       H43          H  0.9222300  0.4731950  1.3888890    0.00000       Uiso       1.00
       H44          H  0.9448901  0.5834450  1.3888890    0.00000       Uiso       1.00
       N45          N  0.2003570  0.3840620  1.3888890    0.00000       Uiso       1.00
       C46          C  0.2353310  0.3949920  1.3888890    0.00000       Uiso       1.00
       C47          C  0.1534920  0.4158670  1.3888890    0.00000       Uiso       1.00
       C48          C  0.1364080  0.4621240  1.3888890    0.00000       Uiso       1.00
       C49          C  0.0905550  0.4913870  1.3888890    0.00000       Uiso       1.00
       C50          C  0.0609950  0.4753210  1.3888890    0.00000       Uiso       1.00
       C51          C  0.0776640  0.4294200  1.3888890    0.00000       Uiso       1.00
       C52          C  0.1234370  0.4000680  1.3888890    0.00000       Uiso       1.00
       H53          H  0.2254220  0.4296840  1.3888890    0.00000       Uiso       1.00
       H54          H  0.1575160  0.4764600  1.3888890    0.00000       Uiso       1.00
       H55          H  0.2079710  0.3511870  1.3888890    0.00000       Uiso       1.00
       H56          H  0.1355900  0.3647570  1.3888890    0.00000       Uiso       1.00
       H57          H  0.0777700  0.5268050  1.3888890    0.00000       Uiso       1.00
       H58          H  0.0551100  0.4165560  1.3888890    0.00000       Uiso       1.00
       N59          N  0.9856510  0.4937650  1.3888890    0.00000       Uiso       1.00
       N60          N  0.0143490  0.5062360  1.3888890    0.00000       Uiso       1.00
       N61          N  0.5844190  0.7996430  1.3888890    0.00000       Uiso       1.00
       C62          C  0.6303230  0.7646690  1.3888890    0.00000       Uiso       1.00
       C63          C  0.5693590  0.8465080  1.3888890    0.00000       Uiso       1.00
       C64          C  0.5985320  0.8635920  1.3888890    0.00000       Uiso       1.00
       C65          C  0.5819421  0.9094450  1.3888890    0.00000       Uiso       1.00
       C66          C  0.5363171  0.9390050  1.3888890    0.00000       Uiso       1.00
       C67          C  0.5070830  0.9223360  1.3888890    0.00000       Uiso       1.00
       C68          C  0.5235050  0.8765630  1.3888890    0.00000       Uiso       1.00
       H69          H  0.6551050  0.7745780  1.3888890    0.00000       Uiso       1.00
       H70          H  0.6339760  0.8424840  1.3888890    0.00000       Uiso       1.00
       H71          H  0.5591580  0.7920290  1.3888890    0.00000       Uiso       1.00
       H72          H  0.5003470  0.8644100  1.3888890    0.00000       Uiso       1.00
       H73          H  0.6045750  0.9222300  1.3888890    0.00000       Uiso       1.00
       H74          H  0.4716660  0.9448900  1.3888890    0.00000       Uiso       1.00
       N75          N  0.4155810  0.2003570  1.3888890    0.00000       Uiso       1.00
       C76          C  0.3696770  0.2353310  1.3888890    0.00000       Uiso       1.00
       C77          C  0.4306410  0.1534920  1.3888890    0.00000       Uiso       1.00
       C78          C  0.4014680  0.1364080  1.3888890    0.00000       Uiso       1.00
       C79          C  0.4180580  0.0905550  1.3888890    0.00000       Uiso       1.00
       C80          C  0.4636840  0.0609950  1.3888890    0.00000       Uiso       1.00
       C81          C  0.4929170  0.0776640  1.3888890    0.00000       Uiso       1.00
       C82          C  0.4764950  0.1234370  1.3888890    0.00000       Uiso       1.00
       H83          H  0.3448950  0.2254220  1.3888890    0.00000       Uiso       1.00
       H84          H  0.3660240  0.1575160  1.3888890    0.00000       Uiso       1.00
       H85          H  0.4408420  0.2079710  1.3888890    0.00000       Uiso       1.00
       H86          H  0.4996530  0.1355900  1.3888890    0.00000       Uiso       1.00
       H87          H  0.3954250  0.0777700  1.3888890    0.00000       Uiso       1.00
       H88          H  0.5283350  0.0551100  1.3888890    0.00000       Uiso       1.00
       N89          N  0.5205851  0.9856511  1.3888890    0.00000       Uiso       1.00
       N90          N  0.4794150  0.0143490  1.3888890    0.00000       Uiso       1.00
       C91          C  0.6867430  0.6162630  1.3888890    0.00000       Uiso       1.00
       C92          C  0.6356090  0.6461410  1.3888890    0.00000       Uiso       1.00
       O93          O  0.7040390  0.5746070  1.3888890    0.00000       Uiso       1.00
       C94          C  0.6162630  0.6969950  1.3888890    0.00000       Uiso       1.00
       C95          C  0.6461410  0.7182500  1.3888890    0.00000       Uiso       1.00
       O96          O  0.5746070  0.7213540  1.3888890    0.00000       Uiso       1.00
       C97          C  0.6969950  0.6867430  1.3888890    0.00000       Uiso       1.00
       C98          C  0.7182500  0.6356090  1.3888890    0.00000       Uiso       1.00
       O99          O  0.7213539  0.7040390  1.3888890    0.00000       Uiso       1.00
      C100          C  0.3132570  0.3837370  1.3888890    0.00000       Uiso       1.00
      C101          C  0.3643910  0.3538590  1.3888890    0.00000       Uiso       1.00
      O102          O  0.2959610  0.4253930  1.3888890    0.00000       Uiso       1.00
      C103          C  0.3837370  0.3030060  1.3888890    0.00000       Uiso       1.00
      C104          C  0.3538590  0.2817500  1.3888890    0.00000       Uiso       1.00
      O105          O  0.4253930  0.2786460  1.3888890    0.00000       Uiso       1.00
      C106          C  0.3030060  0.3132570  1.3888890    0.00000       Uiso       1.00
      C107          C  0.2817500  0.3643910  1.3888890    0.00000       Uiso       1.00
      O108          O  0.2786460  0.2959610  1.3888890    0.00000       Uiso       1.00
