data_CPF-1
_audit_creation_date              0000-00-00
_audit_creation_method            'LanYouShi'
_symmetry_space_group_name_H-M    'P1'
_cell_length_a                    41.9730988
_cell_length_b                    6.8010001
_cell_length_c                    42.0414009
_cell_angle_alpha                 90.0000000
_cell_angle_beta                  90.0016022
_cell_angle_gamma                 90.0000000
loop_
_atom_site_label
_atom_site_type_symbol
_atom_site_fract_x
_atom_site_fract_y
_atom_site_fract_z
_atom_site_U_iso_or_equiv
_atom_site_adp_type
_atom_site_occupancy
        N1          N  0.4497050  0.5000020  0.5083430    0.00000       Uiso       1.00
        N2          N  0.5502280  0.5000020  0.4917270    0.00000       Uiso       1.00
        N3          N  0.9499379  0.5000020  0.0083420    0.00000       Uiso       1.00
        N4          N  0.0499940  0.5000020  0.9917270    0.00000       Uiso       1.00
        H5          H  0.4725080  0.5000020  0.5045760    0.00000       Uiso       1.00
        H6          H  0.5274250  0.5000020  0.4954940    0.00000       Uiso       1.00
        H7          H  0.9727400  0.5000020  0.0045760    0.00000       Uiso       1.00
        H8          H  0.0271930  0.5000020  0.9954930    0.00000       Uiso       1.00
        C9          C  0.4276480  0.5000020  0.4849560    0.00000       Uiso       1.00
       C10          C  0.5722850  0.5000020  0.5151140    0.00000       Uiso       1.00
       C11          C  0.9277680  0.5000020  0.9849710    0.00000       Uiso       1.00
       C12          C  0.0721640  0.5000020  0.0150980    0.00000       Uiso       1.00
       C13          C  0.4363700  0.5000020  0.5375760    0.00000       Uiso       1.00
       C14          C  0.5635620  0.5000020  0.4624930    0.00000       Uiso       1.00
       C15          C  0.9365551  0.5000020  0.0375750    0.00000       Uiso       1.00
       C16          C  0.0633780  0.5000020  0.9624940    0.00000       Uiso       1.00
       C17          C  0.3981340  0.5000020  0.5002520    0.00000       Uiso       1.00
       C18          C  0.6017980  0.5000020  0.4998170    0.00000       Uiso       1.00
       C19          C  0.8983230  0.5000020  0.0002640    0.00000       Uiso       1.00
       C20          C  0.1016100  0.5000020  0.9998050    0.00000       Uiso       1.00
       C21          C  0.4034960  0.5000020  0.5325930    0.00000       Uiso       1.00
       C22          C  0.5964370  0.5000020  0.4674770    0.00000       Uiso       1.00
       C23          C  0.9036820  0.5000020  0.0325920    0.00000       Uiso       1.00
       C24          C  0.0962510  0.5000020  0.9674770    0.00000       Uiso       1.00
       H25          H  0.3761790  0.5000020  0.4897390    0.00000       Uiso       1.00
       H26          H  0.6237540  0.5000020  0.5103300    0.00000       Uiso       1.00
       H27          H  0.8762941  0.5000020  0.9897600    0.00000       Uiso       1.00
       H28          H  0.1236380  0.5000020  0.0103100    0.00000       Uiso       1.00
       H29          H  0.3861040  0.5000020  0.5495950    0.00000       Uiso       1.00
       H30          H  0.6138290  0.5000020  0.4504740    0.00000       Uiso       1.00
       H31          H  0.8862820  0.5000020  0.0495880    0.00000       Uiso       1.00
       H32          H  0.1136510  0.5000020  0.9504810    0.00000       Uiso       1.00
       N33          N  0.9917320  0.5000020  0.9506111    0.00000       Uiso       1.00
       N34          N  0.0082010  0.5000020  0.0494580    0.00000       Uiso       1.00
       N35          N  0.4917780  0.5000020  0.4506550    0.00000       Uiso       1.00
       N36          N  0.5081550  0.5000020  0.5494150    0.00000       Uiso       1.00
       C37          C  0.9625590  0.5000020  0.9367691    0.00000       Uiso       1.00
       C38          C  0.0373740  0.5000020  0.0633010    0.00000       Uiso       1.00
       C39          C  0.4625860  0.5000020  0.4368190    0.00000       Uiso       1.00
       C40          C  0.5373470  0.5000020  0.5632500    0.00000       Uiso       1.00
       C41          C  0.9850490  0.5000020  0.0720130    0.00000       Uiso       1.00
       C42          C  0.0148840  0.5000020  0.9280560    0.00000       Uiso       1.00
       C43          C  0.4849850  0.5000020  0.5719020    0.00000       Uiso       1.00
       C44          C  0.5149480  0.5000020  0.4281680    0.00000       Uiso       1.00
       C45          C  0.9673870  0.5000020  0.9039230    0.00000       Uiso       1.00
       C46          C  0.0325450  0.5000020  0.0961460    0.00000       Uiso       1.00
       C47          C  0.4674340  0.5000020  0.4039770    0.00000       Uiso       1.00
       C48          C  0.5324990  0.5000020  0.5960930    0.00000       Uiso       1.00
       C49          C  0.0002270  0.5000020  0.1014860    0.00000       Uiso       1.00
       C50          C  0.9997050  0.5000020  0.8985839    0.00000       Uiso       1.00
       C51          C  0.5001820  0.5000020  0.6014330    0.00000       Uiso       1.00
       C52          C  0.4997510  0.5000020  0.3986360    0.00000       Uiso       1.00
       H53          H  0.9503280  0.5000020  0.8865750    0.00000       Uiso       1.00
       H54          H  0.0496050  0.5000020  0.1134940    0.00000       Uiso       1.00
       H55          H  0.4503810  0.5000020  0.3866210    0.00000       Uiso       1.00
       H56          H  0.5495510  0.5000020  0.6134480    0.00000       Uiso       1.00
       H57          H  0.9896650  0.5000020  0.1234690    0.00000       Uiso       1.00
       H58          H  0.0102680  0.5000020  0.8766000    0.00000       Uiso       1.00
       H59          H  0.4896310  0.5000020  0.6233530    0.00000       Uiso       1.00
       H60          H  0.5103020  0.5000020  0.3767160    0.00000       Uiso       1.00
       C61          C  0.4323280  0.5000020  0.4516550    0.00000       Uiso       1.00
       C62          C  0.5676050  0.5000020  0.5484150    0.00000       Uiso       1.00
       C63          C  0.9323430  0.5000020  0.9516550    0.00000       Uiso       1.00
       C64          C  0.0675900  0.5000020  0.0484140    0.00000       Uiso       1.00
       C65          C  0.4515470  0.5000020  0.5675910    0.00000       Uiso       1.00
       C66          C  0.5483860  0.5000020  0.4324780    0.00000       Uiso       1.00
       C67          C  0.9516350  0.5000020  0.0676390    0.00000       Uiso       1.00
       C68          C  0.0482980  0.5000020  0.9324310    0.00000       Uiso       1.00
       C69          C  0.4049630  0.5000020  0.4320750    0.00000       Uiso       1.00
       C70          C  0.5949700  0.5000020  0.5679940    0.00000       Uiso       1.00
       C71          C  0.9049510  0.5000020  0.9321100    0.00000       Uiso       1.00
       C72          C  0.0949820  0.5000020  0.0679590    0.00000       Uiso       1.00
       C73          C  0.4320170  0.5000020  0.5949690    0.00000       Uiso       1.00
       C74          C  0.5679160  0.5000020  0.4051000    0.00000       Uiso       1.00
       C75          C  0.9320670  0.5000020  0.0949910    0.00000       Uiso       1.00
       C76          C  0.0678660  0.5000020  0.9050790    0.00000       Uiso       1.00
       C77          C  0.8910699  0.6791980  0.9223189    0.00000       Uiso       1.00
       C78          C  0.1088630  0.6791980  0.0777510    0.00000       Uiso       1.00
       C79          C  0.1088630  0.3208070  0.0777510    0.00000       Uiso       1.00
       C80          C  0.8910699  0.3208070  0.9223189    0.00000       Uiso       1.00
       C81          C  0.3910930  0.6791980  0.4222670    0.00000       Uiso       1.00
       C82          C  0.6088400  0.6791980  0.5778020    0.00000       Uiso       1.00
       C83          C  0.6088400  0.3208070  0.5778020    0.00000       Uiso       1.00
       C84          C  0.3910930  0.3208070  0.4222670    0.00000       Uiso       1.00
       C85          C  0.9222661  0.3208070  0.1088540    0.00000       Uiso       1.00
       C86          C  0.0776670  0.3208070  0.8912151    0.00000       Uiso       1.00
       C87          C  0.0776670  0.6791970  0.8912151    0.00000       Uiso       1.00
       C88          C  0.9222661  0.6791970  0.1088540    0.00000       Uiso       1.00
       C89          C  0.4222330  0.3208070  0.6088440    0.00000       Uiso       1.00
       C90          C  0.5777000  0.3208070  0.3912250    0.00000       Uiso       1.00
       C91          C  0.5777000  0.6791980  0.3912250    0.00000       Uiso       1.00
       C92          C  0.4222330  0.6791980  0.6088440    0.00000       Uiso       1.00
       H93          H  0.4008410  0.8103210  0.4292100    0.00000       Uiso       1.00
       H94          H  0.5990920  0.8103210  0.5708600    0.00000       Uiso       1.00
       H95          H  0.5990920  0.1896830  0.5708600    0.00000       Uiso       1.00
       H96          H  0.4008410  0.1896830  0.4292100    0.00000       Uiso       1.00
       H97          H  0.9008250  0.8103200  0.9292510    0.00000       Uiso       1.00
       H98          H  0.0991080  0.8103200  0.0708180    0.00000       Uiso       1.00
       H99          H  0.0991080  0.1896840  0.0708180    0.00000       Uiso       1.00
      H100          H  0.9008250  0.1896840  0.9292510    0.00000       Uiso       1.00
      H101          H  0.4291550  0.1896830  0.5990900    0.00000       Uiso       1.00
      H102          H  0.5707780  0.1896830  0.4009800    0.00000       Uiso       1.00
      H103          H  0.5707780  0.8103210  0.4009800    0.00000       Uiso       1.00
      H104          H  0.4291550  0.8103210  0.5990900    0.00000       Uiso       1.00
      H105          H  0.9291970  0.1896840  0.0991060    0.00000       Uiso       1.00
      H106          H  0.0707350  0.1896840  0.9009630    0.00000       Uiso       1.00
      H107          H  0.0707350  0.8103200  0.9009630    0.00000       Uiso       1.00
      H108          H  0.9291970  0.8103200  0.0991060    0.00000       Uiso       1.00
      C109          C  0.3636870  0.6791820  0.4029750    0.00000       Uiso       1.00
      C110          C  0.6362460  0.6791820  0.5970940    0.00000       Uiso       1.00
      C111          C  0.6362460  0.3208220  0.5970940    0.00000       Uiso       1.00
      C112          C  0.3636870  0.3208220  0.4029750    0.00000       Uiso       1.00
      C113          C  0.8636450  0.6791820  0.9030540    0.00000       Uiso       1.00
      C114          C  0.1362880  0.6791820  0.0970150    0.00000       Uiso       1.00
      C115          C  0.1362880  0.3208220  0.0970150    0.00000       Uiso       1.00
      C116          C  0.8636450  0.3208220  0.9030540    0.00000       Uiso       1.00
      C117          C  0.4029880  0.3208220  0.6362590    0.00000       Uiso       1.00
      C118          C  0.5969450  0.3208220  0.3638100    0.00000       Uiso       1.00
      C119          C  0.5969450  0.6791820  0.3638100    0.00000       Uiso       1.00
      C120          C  0.4029880  0.6791820  0.6362590    0.00000       Uiso       1.00
      C121          C  0.9029940  0.3208220  0.1362500    0.00000       Uiso       1.00
      C122          C  0.0969390  0.3208220  0.8638190    0.00000       Uiso       1.00
      C123          C  0.0969390  0.6791820  0.8638190    0.00000       Uiso       1.00
      C124          C  0.9029940  0.6791820  0.1362500    0.00000       Uiso       1.00
      H125          H  0.3538290  0.8103840  0.3961980    0.00000       Uiso       1.00
      H126          H  0.6461040  0.8103840  0.6038710    0.00000       Uiso       1.00
      H127          H  0.6461040  0.1896200  0.6038710    0.00000       Uiso       1.00
      H128          H  0.3538290  0.1896200  0.3961980    0.00000       Uiso       1.00
      H129          H  0.8537810  0.8103861  0.8962860    0.00000       Uiso       1.00
      H130          H  0.1461520  0.8103861  0.1037830    0.00000       Uiso       1.00
      H131          H  0.1461520  0.1896190  0.1037830    0.00000       Uiso       1.00
      H132          H  0.8537810  0.1896190  0.8962860    0.00000       Uiso       1.00
      H133          H  0.3962270  0.1896210  0.6461190    0.00000       Uiso       1.00
      H134          H  0.6037060  0.1896210  0.3539500    0.00000       Uiso       1.00
      H135          H  0.6037060  0.8103840  0.3539500    0.00000       Uiso       1.00
      H136          H  0.3962270  0.8103840  0.6461190    0.00000       Uiso       1.00
      H137          H  0.8962220  0.1896190  0.1461030    0.00000       Uiso       1.00
      H138          H  0.1037100  0.1896190  0.8539660    0.00000       Uiso       1.00
      H139          H  0.1037100  0.8103861  0.8539660    0.00000       Uiso       1.00
      H140          H  0.8962220  0.8103861  0.1461030    0.00000       Uiso       1.00
      C141          C  0.3497560  0.5000020  0.3931450    0.00000       Uiso       1.00
      C142          C  0.6501770  0.5000020  0.6069240    0.00000       Uiso       1.00
      C143          C  0.8497059  0.5000020  0.8932360    0.00000       Uiso       1.00
      C144          C  0.1502270  0.5000020  0.1068330    0.00000       Uiso       1.00
      C145          C  0.3931790  0.5000020  0.6501930    0.00000       Uiso       1.00
      C146          C  0.6067530  0.5000020  0.3498770    0.00000       Uiso       1.00
      C147          C  0.8931750  0.5000020  0.1501760    0.00000       Uiso       1.00
      C148          C  0.1067580  0.5000020  0.8498930    0.00000       Uiso       1.00
      C149          C  0.7705730  0.5000020  0.2228720    0.00000       Uiso       1.00
      C150          C  0.2293600  0.5000020  0.7771970    0.00000       Uiso       1.00
      C151          C  0.7370660  0.5000020  0.2192310    0.00000       Uiso       1.00
      C152          C  0.2628670  0.5000020  0.7808380    0.00000       Uiso       1.00
      C153          C  0.7168060  0.5000020  0.2459320    0.00000       Uiso       1.00
      C154          C  0.2831270  0.5000020  0.7541370    0.00000       Uiso       1.00
      C155          C  0.7293450  0.5000020  0.2771940    0.00000       Uiso       1.00
      C156          C  0.2705880  0.5000020  0.7228750    0.00000       Uiso       1.00
      C157          C  0.7628500  0.5000020  0.2808360    0.00000       Uiso       1.00
      C158          C  0.2370830  0.5000020  0.7192330    0.00000       Uiso       1.00
      C159          C  0.7831100  0.5000020  0.2541360    0.00000       Uiso       1.00
      C160          C  0.2168230  0.5000020  0.7459330    0.00000       Uiso       1.00
      C161          C  0.7904300  0.5000020  0.1958250    0.00000       Uiso       1.00
      C162          C  0.2095030  0.5000020  0.8042440    0.00000       Uiso       1.00
      H163          H  0.7270050  0.5000020  0.1970320    0.00000       Uiso       1.00
      H164          H  0.2729280  0.5000020  0.8030370    0.00000       Uiso       1.00
      H165          H  0.6926410  0.5000020  0.2423540    0.00000       Uiso       1.00
      H166          H  0.3072920  0.5000020  0.7577160    0.00000       Uiso       1.00
      C167          C  0.7094850  0.5000020  0.3042370    0.00000       Uiso       1.00
      C168          C  0.2904480  0.5000020  0.6958330    0.00000       Uiso       1.00
      H169          H  0.7729090  0.5000020  0.3030360    0.00000       Uiso       1.00
      H170          H  0.2270240  0.5000020  0.6970330    0.00000       Uiso       1.00
      H171          H  0.8072730  0.5000020  0.2577260    0.00000       Uiso       1.00
      H172          H  0.1926600  0.5000020  0.7423430    0.00000       Uiso       1.00
      N173          N  0.8224690  0.5000020  0.1981720    0.00000       Uiso       1.00
      N174          N  0.1774640  0.5000020  0.8018970    0.00000       Uiso       1.00
      N175          N  0.6774490  0.5000020  0.3018710    0.00000       Uiso       1.00
      N176          N  0.3224840  0.5000020  0.6981980    0.00000       Uiso       1.00
      N177          N  0.8419200  0.5000020  0.1741500    0.00000       Uiso       1.00
      N178          N  0.1580130  0.5000020  0.8259190    0.00000       Uiso       1.00
      N179          N  0.6579960  0.5000020  0.3258880    0.00000       Uiso       1.00
      N180          N  0.3419370  0.5000020  0.6741810    0.00000       Uiso       1.00
      H181          H  0.8334020  0.5000020  0.1527640    0.00000       Uiso       1.00
      H182          H  0.1665310  0.5000020  0.8473051    0.00000       Uiso       1.00
      C183          C  0.8739290  0.5000020  0.1774520    0.00000       Uiso       1.00
      C184          C  0.1260040  0.5000020  0.8226181    0.00000       Uiso       1.00
      C185          C  0.6259860  0.5000020  0.3225920    0.00000       Uiso       1.00
      C186          C  0.3739470  0.5000020  0.6774770    0.00000       Uiso       1.00
      O187          O  0.8870199  0.5000020  0.2042310    0.00000       Uiso       1.00
      O188          O  0.1129130  0.5000020  0.7958380    0.00000       Uiso       1.00
      H189          H  0.6665110  0.5000020  0.3472740    0.00000       Uiso       1.00
      H190          H  0.3334220  0.5000020  0.6527950    0.00000       Uiso       1.00
      O191          O  0.6128830  0.5000020  0.2958170    0.00000       Uiso       1.00
      O192          O  0.3870500  0.5000020  0.7042520    0.00000       Uiso       1.00
      H193          H  0.7194520  0.5000020  0.3264620    0.00000       Uiso       1.00
      H194          H  0.2804810  0.5000020  0.6736080    0.00000       Uiso       1.00
      C195          C  0.2228690  0.5000020  0.2293400    0.00000       Uiso       1.00
      C196          C  0.7770640  0.5000020  0.7707290    0.00000       Uiso       1.00
      C197          C  0.2191640  0.5000020  0.2627860    0.00000       Uiso       1.00
      C198          C  0.7807680  0.5000020  0.7372840    0.00000       Uiso       1.00
      C199          C  0.2458730  0.5000020  0.2830610    0.00000       Uiso       1.00
      C200          C  0.7540590  0.5000020  0.7170090    0.00000       Uiso       1.00
      C201          C  0.2772080  0.5000020  0.2705980    0.00000       Uiso       1.00
      C202          C  0.7227250  0.5000020  0.7294720    0.00000       Uiso       1.00
      C203          C  0.2809140  0.5000020  0.2371540    0.00000       Uiso       1.00
      C204          C  0.7190190  0.5000020  0.7629150    0.00000       Uiso       1.00
      C205          C  0.2542060  0.5000020  0.2168790    0.00000       Uiso       1.00
      C206          C  0.7457270  0.5000020  0.7831901    0.00000       Uiso       1.00
      C207          C  0.1958120  0.5000020  0.2094680    0.00000       Uiso       1.00
      C208          C  0.8041210  0.5000020  0.7906011    0.00000       Uiso       1.00
      H209          H  0.1969120  0.5000020  0.2727910    0.00000       Uiso       1.00
      H210          H  0.8030210  0.5000020  0.7272780    0.00000       Uiso       1.00
      H211          H  0.2422470  0.5000020  0.3071800    0.00000       Uiso       1.00
      H212          H  0.7576860  0.5000020  0.6928890    0.00000       Uiso       1.00
      C213          C  0.3042590  0.5000020  0.2904760    0.00000       Uiso       1.00
      C214          C  0.6956730  0.5000020  0.7095930    0.00000       Uiso       1.00
      H215          H  0.3031680  0.5000020  0.2271510    0.00000       Uiso       1.00
      H216          H  0.6967650  0.5000020  0.7729180    0.00000       Uiso       1.00
      H217          H  0.2578430  0.5000020  0.1927620    0.00000       Uiso       1.00
      H218          H  0.7420900  0.5000020  0.8073071    0.00000       Uiso       1.00
      N219          N  0.1982140  0.5000020  0.1774850    0.00000       Uiso       1.00
      N220          N  0.8017191  0.5000020  0.8225840    0.00000       Uiso       1.00
      N221          N  0.3018300  0.5000020  0.3224550    0.00000       Uiso       1.00
      N222          N  0.6981030  0.5000020  0.6776150    0.00000       Uiso       1.00
      N223          N  0.1741800  0.5000020  0.1580310    0.00000       Uiso       1.00
      N224          N  0.8257530  0.5000020  0.8420380    0.00000       Uiso       1.00
      N225          N  0.3258450  0.5000020  0.3419280    0.00000       Uiso       1.00
      N226          N  0.6740880  0.5000020  0.6581410    0.00000       Uiso       1.00
      H227          H  0.1527470  0.5000020  0.1665070    0.00000       Uiso       1.00
      H228          H  0.8471861  0.5000020  0.8335631    0.00000       Uiso       1.00
      C229          C  0.1775260  0.5000020  0.1260790    0.00000       Uiso       1.00
      C230          C  0.8224071  0.5000020  0.8739900    0.00000       Uiso       1.00
      C231          C  0.3224730  0.5000020  0.3738780    0.00000       Uiso       1.00
      C232          C  0.6774600  0.5000020  0.6261920    0.00000       Uiso       1.00
      O233          O  0.2043640  0.5000020  0.1130420    0.00000       Uiso       1.00
      O234          O  0.7955680  0.5000020  0.8870270    0.00000       Uiso       1.00
      H235          H  0.3472840  0.5000020  0.3334740    0.00000       Uiso       1.00
      H236          H  0.6526490  0.5000020  0.6665960    0.00000       Uiso       1.00
      O237          O  0.2956260  0.5000020  0.3868980    0.00000       Uiso       1.00
      O238          O  0.7043070  0.5000020  0.6131710    0.00000       Uiso       1.00
      H239          H  0.3265390  0.5000020  0.2805670    0.00000       Uiso       1.00
      H240          H  0.6733940  0.5000020  0.7195020    0.00000       Uiso       1.00
      H241          H  0.7804560  0.5000020  0.1736020    0.00000       Uiso       1.00
      H242          H  0.1735360  0.5000020  0.2193880    0.00000       Uiso       1.00
      H243          H  0.2194770  0.5000020  0.8264670    0.00000       Uiso       1.00
      H244          H  0.8263970  0.5000020  0.7806810    0.00000       Uiso       1.00
