data_CPF-2
_audit_creation_date              0000-00-00
_audit_creation_method            'LanYouShi'
_symmetry_space_group_name_H-M    'P1'
_cell_length_a                    28.9773998
_cell_length_b                    6.8442001
_cell_length_c                    28.9745007
_cell_angle_alpha                 90.0000000
_cell_angle_beta                  89.8547974
_cell_angle_gamma                 90.0000000
loop_
_atom_site_label
_atom_site_type_symbol
_atom_site_fract_x
_atom_site_fract_y
_atom_site_fract_z
_atom_site_U_iso_or_equiv
_atom_site_adp_type
_atom_site_occupancy
        N1          N  0.9403170  0.4999980  0.0435630    0.00000       Uiso       1.00
        N2          N  0.0596840  0.4999980  0.9564360    0.00000       Uiso       1.00
        H3          H  0.9673900  0.4999980  0.0237970    0.00000       Uiso       1.00
        H4          H  0.0326110  0.4999980  0.9762021    0.00000       Uiso       1.00
        C5          C  0.9420690  0.4999980  0.0901360    0.00000       Uiso       1.00
        C6          C  0.0579320  0.4999980  0.9098630    0.00000       Uiso       1.00
        C7          C  0.8965440  0.4999980  0.0276700    0.00000       Uiso       1.00
        C8          C  0.1034570  0.4999980  0.9723300    0.00000       Uiso       1.00
        C9          C  0.8962530  0.4999980  0.1051310    0.00000       Uiso       1.00
       C10          C  0.1037480  0.4999980  0.8948680    0.00000       Uiso       1.00
       C11          C  0.8682750  0.4999980  0.0667380    0.00000       Uiso       1.00
       C12          C  0.1317260  0.4999980  0.9332621    0.00000       Uiso       1.00
       H13          H  0.8847890  0.4999980  0.1385230    0.00000       Uiso       1.00
       H14          H  0.1152120  0.4999980  0.8614760    0.00000       Uiso       1.00
       H15          H  0.8330180  0.4999980  0.0674660    0.00000       Uiso       1.00
       H16          H  0.1669820  0.4999980  0.9325330    0.00000       Uiso       1.00
       N17          N  0.0427170  0.4999980  0.0586270    0.00000       Uiso       1.00
       N18          N  0.9572840  0.4999980  0.9413730    0.00000       Uiso       1.00
       C19          C  0.0273420  0.4999980  0.1028810    0.00000       Uiso       1.00
       C20          C  0.9726590  0.4999980  0.8971189    0.00000       Uiso       1.00
       C21          C  0.9104870  0.4999980  0.9425070    0.00000       Uiso       1.00
       C22          C  0.0895140  0.4999980  0.0574920    0.00000       Uiso       1.00
       C23          C  0.0662110  0.4999980  0.1312240    0.00000       Uiso       1.00
       C24          C  0.9337890  0.4999980  0.8687760    0.00000       Uiso       1.00
       C25          C  0.8954170  0.4999980  0.8967870    0.00000       Uiso       1.00
       C26          C  0.1045840  0.4999980  0.1032120    0.00000       Uiso       1.00
       H27          H  0.0668210  0.4999980  0.1664950    0.00000       Uiso       1.00
       H28          H  0.9331800  0.4999980  0.8335040    0.00000       Uiso       1.00
       H29          H  0.8620350  0.4999980  0.8854270    0.00000       Uiso       1.00
       H30          H  0.1379660  0.4999980  0.1145720    0.00000       Uiso       1.00
       C31          C  0.9812511  0.4999980  0.1191160    0.00000       Uiso       1.00
       C32          C  0.0187490  0.4999980  0.8808830    0.00000       Uiso       1.00
       C33          C  0.8809510  0.4999980  0.9814830    0.00000       Uiso       1.00
       C34          C  0.1190500  0.4999980  0.0185170    0.00000       Uiso       1.00
       C35          C  0.9736460  0.4999980  0.1673100    0.00000       Uiso       1.00
       C36          C  0.0263550  0.4999980  0.8326900    0.00000       Uiso       1.00
       C37          C  0.8328050  0.4999980  0.9738530    0.00000       Uiso       1.00
       C38          C  0.1671960  0.4999980  0.0261470    0.00000       Uiso       1.00
       C39          C  0.9696120  0.3219120  0.1916070    0.00000       Uiso       1.00
       C40          C  0.0303890  0.3219120  0.8083920    0.00000       Uiso       1.00
       C41          C  0.0303890  0.6780840  0.8083920    0.00000       Uiso       1.00
       C42          C  0.9696120  0.6780840  0.1916070    0.00000       Uiso       1.00
       C43          C  0.8085320  0.6780840  0.9698040    0.00000       Uiso       1.00
       C44          C  0.1914690  0.6780840  0.0301950    0.00000       Uiso       1.00
       C45          C  0.1914690  0.3219120  0.0301950    0.00000       Uiso       1.00
       C46          C  0.8085320  0.3219120  0.9698040    0.00000       Uiso       1.00
       H47          H  0.9724400  0.1915690  0.1744910    0.00000       Uiso       1.00
       H48          H  0.0275610  0.1915690  0.8255080    0.00000       Uiso       1.00
       H49          H  0.0275610  0.8084280  0.8255080    0.00000       Uiso       1.00
       H50          H  0.9724400  0.8084280  0.1744910    0.00000       Uiso       1.00
       H51          H  0.8256290  0.8084280  0.9726520    0.00000       Uiso       1.00
       H52          H  0.1743720  0.8084280  0.0273480    0.00000       Uiso       1.00
       H53          H  0.1743720  0.1915690  0.0273480    0.00000       Uiso       1.00
       H54          H  0.8256290  0.1915690  0.9726520    0.00000       Uiso       1.00
       C55          C  0.9614171  0.3219110  0.2395080    0.00000       Uiso       1.00
       C56          C  0.0385840  0.3219110  0.7604920    0.00000       Uiso       1.00
       C57          C  0.0385840  0.6780850  0.7604920    0.00000       Uiso       1.00
       C58          C  0.9614171  0.6780850  0.2395080    0.00000       Uiso       1.00
       C59          C  0.7606840  0.6780850  0.9615730    0.00000       Uiso       1.00
       C60          C  0.2393160  0.6780850  0.0384270    0.00000       Uiso       1.00
       C61          C  0.2393160  0.3219110  0.0384270    0.00000       Uiso       1.00
       C62          C  0.7606840  0.3219110  0.9615730    0.00000       Uiso       1.00
       H63          H  0.9582790  0.1914510  0.2565550    0.00000       Uiso       1.00
       H64          H  0.0417220  0.1914510  0.7434450    0.00000       Uiso       1.00
       H65          H  0.0417220  0.8085449  0.7434450    0.00000       Uiso       1.00
       H66          H  0.9582790  0.8085449  0.2565550    0.00000       Uiso       1.00
       H67          H  0.7436570  0.8085449  0.9584230    0.00000       Uiso       1.00
       H68          H  0.2563440  0.8085449  0.0415760    0.00000       Uiso       1.00
       H69          H  0.2563440  0.1914510  0.0415760    0.00000       Uiso       1.00
       H70          H  0.7436570  0.1914510  0.9584230    0.00000       Uiso       1.00
       C71          C  0.9572200  0.4999980  0.2638610    0.00000       Uiso       1.00
       C72          C  0.0427810  0.4999980  0.7361390    0.00000       Uiso       1.00
       C73          C  0.7363580  0.4999980  0.9573570    0.00000       Uiso       1.00
       C74          C  0.2636430  0.4999980  0.0426430    0.00000       Uiso       1.00
       C75          C  0.5346330  0.4999980  0.0057640    0.00000       Uiso       1.00
       C76          C  0.4653680  0.4999980  0.9942350    0.00000       Uiso       1.00
       C77          C  0.4943220  0.4999980  0.0340910    0.00000       Uiso       1.00
       C78          C  0.5056790  0.4999980  0.9659080    0.00000       Uiso       1.00
       C79          C  0.5842540  0.4999980  0.0148800    0.00000       Uiso       1.00
       C80          C  0.4157470  0.4999980  0.9851190    0.00000       Uiso       1.00
       O81          O  0.4880750  0.4999980  0.0756720    0.00000       Uiso       1.00
       O82          O  0.5119260  0.4999980  0.9243270    0.00000       Uiso       1.00
       N83          N  0.6144630  0.4999980  0.9795770    0.00000       Uiso       1.00
       N84          N  0.3855380  0.4999980  0.0204220    0.00000       Uiso       1.00
       N85          N  0.6589760  0.4999980  0.9847890    0.00000       Uiso       1.00
       N86          N  0.3410250  0.4999980  0.0152100    0.00000       Uiso       1.00
       H87          H  0.6717980  0.4999980  0.0156010    0.00000       Uiso       1.00
       H88          H  0.3282030  0.4999980  0.9843990    0.00000       Uiso       1.00
       C89          C  0.6887310  0.4999980  0.9488660    0.00000       Uiso       1.00
       C90          C  0.3112700  0.4999980  0.0511330    0.00000       Uiso       1.00
       O91          O  0.6751590  0.4999980  0.9078940    0.00000       Uiso       1.00
       O92          O  0.3248410  0.4999980  0.0921050    0.00000       Uiso       1.00
       H93          H  0.4044360  0.4999980  0.9517071    0.00000       Uiso       1.00
       H94          H  0.5955650  0.4999980  0.0482930    0.00000       Uiso       1.00
       C95          C  0.9942560  0.4999980  0.5346680    0.00000       Uiso       1.00
       C96          C  0.0057450  0.4999980  0.4653320    0.00000       Uiso       1.00
       C97          C  0.9659110  0.4999980  0.4945120    0.00000       Uiso       1.00
       C98          C  0.0340900  0.4999980  0.5054880    0.00000       Uiso       1.00
       C99          C  0.9851690  0.4999980  0.5843450    0.00000       Uiso       1.00
      C100          C  0.0148320  0.4999980  0.4156540    0.00000       Uiso       1.00
      O101          O  0.9243310  0.4999980  0.4884960    0.00000       Uiso       1.00
      O102          O  0.0756700  0.4999980  0.5115030    0.00000       Uiso       1.00
      N103          N  0.0204840  0.4999980  0.6143580    0.00000       Uiso       1.00
      N104          N  0.9795170  0.4999980  0.3856410    0.00000       Uiso       1.00
      N105          N  0.0153000  0.4999980  0.6589050    0.00000       Uiso       1.00
      N106          N  0.9847010  0.4999980  0.3410940    0.00000       Uiso       1.00
      H107          H  0.9845020  0.4999980  0.6719030    0.00000       Uiso       1.00
      H108          H  0.0154990  0.4999980  0.3280960    0.00000       Uiso       1.00
      C109          C  0.0512390  0.4999980  0.6884580    0.00000       Uiso       1.00
      C110          C  0.9487620  0.4999980  0.3115410    0.00000       Uiso       1.00
      O111          O  0.0921980  0.4999980  0.6746520    0.00000       Uiso       1.00
      O112          O  0.9078030  0.4999980  0.3253480    0.00000       Uiso       1.00
      H113          H  0.0482340  0.4999980  0.4041540    0.00000       Uiso       1.00
      H114          H  0.9517670  0.4999980  0.5958450    0.00000       Uiso       1.00
