data_CS-COF
_audit_creation_date              0000-00-00
_audit_creation_method            'LanYouShi'
_symmetry_space_group_name_H-M    'P1'
_cell_length_a                    32.3400002
_cell_length_b                    32.3400002
_cell_length_c                    3.4000001
_cell_angle_alpha                 90.0000000
_cell_angle_beta                  90.0000000
_cell_angle_gamma                 120.0000000
loop_
_atom_site_label
_atom_site_type_symbol
_atom_site_fract_x
_atom_site_fract_y
_atom_site_fract_z
_atom_site_U_iso_or_equiv
_atom_site_adp_type
_atom_site_occupancy
        C1          C  0.5476190  0.5476190  1.4705880    0.00000       Uiso       1.00
        C2          C  0.5476190  0.5000000  1.4705880    0.00000       Uiso       1.00
        C3          C  0.5000000  0.4523810  1.4705880    0.00000       Uiso       1.00
        C4          C  0.4523810  0.4523810  1.4705880    0.00000       Uiso       1.00
        C5          C  0.4523810  0.5000000  1.4705880    0.00000       Uiso       1.00
        C6          C  0.5000000  0.5476190  1.4705880    0.00000       Uiso       1.00
        C7          C  0.4047620  0.4047620  1.4705880    0.00000       Uiso       1.00
        C8          C  0.4047620  0.3571430  1.4705880    0.00000       Uiso       1.00
        C9          C  0.4523810  0.3571430  1.4705880    0.00000       Uiso       1.00
       C10          C  0.5000000  0.4047620  1.4705880    0.00000       Uiso       1.00
       C11          C  0.5952380  0.5952380  1.4705880    0.00000       Uiso       1.00
       C12          C  0.6428570  0.5952380  1.4705880    0.00000       Uiso       1.00
       C13          C  0.6428570  0.5476190  1.4705880    0.00000       Uiso       1.00
       C14          C  0.5952380  0.5000000  1.4705880    0.00000       Uiso       1.00
       C15          C  0.5000000  0.5952380  1.4705880    0.00000       Uiso       1.00
       C16          C  0.4523810  0.5952380  1.4705880    0.00000       Uiso       1.00
       C17          C  0.4047620  0.5476190  1.4705880    0.00000       Uiso       1.00
       C18          C  0.4047620  0.5000000  1.4705880    0.00000       Uiso       1.00
       N19          N  0.4523810  0.3095240  1.4705880    0.00000       Uiso       1.00
       C20          C  0.4047620  0.2619050  1.4705880    0.00000       Uiso       1.00
       C21          C  0.3571430  0.2619050  1.4705880    0.00000       Uiso       1.00
       N22          N  0.3571430  0.3095240  1.4705880    0.00000       Uiso       1.00
       N23          N  0.6904760  0.5476190  1.4705880    0.00000       Uiso       1.00
       C24          C  0.7380950  0.5952380  1.4705880    0.00000       Uiso       1.00
       C25          C  0.7380950  0.6428570  1.4705880    0.00000       Uiso       1.00
       N26          N  0.6904760  0.6428570  1.4705880    0.00000       Uiso       1.00
       N27          N  0.3571430  0.5476190  1.4705880    0.00000       Uiso       1.00
       C28          C  0.3571430  0.5952380  1.4705880    0.00000       Uiso       1.00
       C29          C  0.4047620  0.6428570  1.4705880    0.00000       Uiso       1.00
       N30          N  0.4523810  0.6428570  1.4705880    0.00000       Uiso       1.00
       H31          H  0.3695110  0.4047620  1.4705880    0.00000       Uiso       1.00
       H32          H  0.5352500  0.4047620  1.4705880    0.00000       Uiso       1.00
       H33          H  0.5952380  0.6304890  1.4705880    0.00000       Uiso       1.00
       H34          H  0.5952380  0.4647500  1.4705880    0.00000       Uiso       1.00
       H35          H  0.5352500  0.6304890  1.4705880    0.00000       Uiso       1.00
       H36          H  0.3695110  0.4647500  1.4705880    0.00000       Uiso       1.00
       C37          C  0.1190480  0.7857140  1.4705880    0.00000       Uiso       1.00
       C38          C  0.1190480  0.8333330  1.4705880    0.00000       Uiso       1.00
       C39          C  0.1666670  0.8809520  1.4705880    0.00000       Uiso       1.00
       C40          C  0.2142860  0.8809520  1.4705880    0.00000       Uiso       1.00
       C41          C  0.2142860  0.8333330  1.4705880    0.00000       Uiso       1.00
       C42          C  0.1666670  0.7857140  1.4705880    0.00000       Uiso       1.00
       C43          C  0.2619050  0.9285710  1.4705880    0.00000       Uiso       1.00
       C44          C  0.2619050  0.9761900  1.4705880    0.00000       Uiso       1.00
       C45          C  0.2142860  0.9761900  1.4705880    0.00000       Uiso       1.00
       C46          C  0.1666670  0.9285710  1.4705880    0.00000       Uiso       1.00
       C47          C  0.0714290  0.7380950  1.4705880    0.00000       Uiso       1.00
       C48          C  0.0238100  0.7380950  1.4705880    0.00000       Uiso       1.00
       C49          C  0.0238100  0.7857140  1.4705880    0.00000       Uiso       1.00
       C50          C  0.0714290  0.8333330  1.4705880    0.00000       Uiso       1.00
       C51          C  0.1666670  0.7380950  1.4705880    0.00000       Uiso       1.00
       C52          C  0.2142860  0.7380950  1.4705880    0.00000       Uiso       1.00
       C53          C  0.2619050  0.7857140  1.4705880    0.00000       Uiso       1.00
       C54          C  0.2619050  0.8333330  1.4705880    0.00000       Uiso       1.00
       N55          N  0.2142860  0.0238100  1.4705880    0.00000       Uiso       1.00
       C56          C  0.2619050  0.0714290  1.4705880    0.00000       Uiso       1.00
       C57          C  0.3095240  0.0714290  1.4705880    0.00000       Uiso       1.00
       N58          N  0.3095240  0.0238100  1.4705880    0.00000       Uiso       1.00
       N59          N  0.9761900  0.7857140  1.4705880    0.00000       Uiso       1.00
       C60          C  0.9285710  0.7380950  1.4705880    0.00000       Uiso       1.00
       C61          C  0.9285710  0.6904760  1.4705880    0.00000       Uiso       1.00
       N62          N  0.9761910  0.6904760  1.4705880    0.00000       Uiso       1.00
       N63          N  0.3095240  0.7857140  1.4705880    0.00000       Uiso       1.00
       C64          C  0.3095240  0.7380950  1.4705880    0.00000       Uiso       1.00
       C65          C  0.2619050  0.6904760  1.4705880    0.00000       Uiso       1.00
       N66          N  0.2142860  0.6904760  1.4705880    0.00000       Uiso       1.00
       H67          H  0.2971550  0.9285710  1.4705880    0.00000       Uiso       1.00
       H68          H  0.1314160  0.9285710  1.4705880    0.00000       Uiso       1.00
       H69          H  0.0714290  0.7028450  1.4705880    0.00000       Uiso       1.00
       H70          H  0.0714290  0.8685840  1.4705880    0.00000       Uiso       1.00
       H71          H  0.1314160  0.7028450  1.4705880    0.00000       Uiso       1.00
       H72          H  0.2971550  0.8685840  1.4705880    0.00000       Uiso       1.00
       C73          C  0.8809521  0.7380950  1.4705880    0.00000       Uiso       1.00
       C74          C  0.8333330  0.6904760  1.4705880    0.00000       Uiso       1.00
       C75          C  0.8333331  0.6428570  1.4705880    0.00000       Uiso       1.00
       C76          C  0.8809520  0.6428570  1.4705880    0.00000       Uiso       1.00
       C77          C  0.7857140  0.5952380  1.4705880    0.00000       Uiso       1.00
       C78          C  0.7857140  0.6904760  1.4705880    0.00000       Uiso       1.00
       C79          C  0.7857140  0.7380950  1.4705880    0.00000       Uiso       1.00
       C80          C  0.8333330  0.7857140  1.4705880    0.00000       Uiso       1.00
       C81          C  0.8809520  0.7857140  1.4705880    0.00000       Uiso       1.00
       C82          C  0.8809520  0.5952380  1.4705880    0.00000       Uiso       1.00
       C83          C  0.8333330  0.5476190  1.4705880    0.00000       Uiso       1.00
       C84          C  0.7857140  0.5476190  1.4705880    0.00000       Uiso       1.00
       H85          H  0.7504640  0.7380950  1.4705880    0.00000       Uiso       1.00
       H86          H  0.8333330  0.8209650  1.4705880    0.00000       Uiso       1.00
       H87          H  0.9162030  0.8209650  1.4705880    0.00000       Uiso       1.00
       H88          H  0.9162031  0.5952380  1.4705880    0.00000       Uiso       1.00
       H89          H  0.8333330  0.5123690  1.4705880    0.00000       Uiso       1.00
       H90          H  0.7504640  0.5123690  1.4705880    0.00000       Uiso       1.00
       C91          C  0.3571430  0.7380950  1.4705880    0.00000       Uiso       1.00
       C92          C  0.3571430  0.6904760  1.4705880    0.00000       Uiso       1.00
       C93          C  0.3095240  0.6428570  1.4705880    0.00000       Uiso       1.00
       C94          C  0.2619050  0.6428570  1.4705880    0.00000       Uiso       1.00
       C95          C  0.3095240  0.5952380  1.4705880    0.00000       Uiso       1.00
       C96          C  0.4047620  0.6904760  1.4705880    0.00000       Uiso       1.00
       C97          C  0.4523810  0.7380950  1.4705880    0.00000       Uiso       1.00
       C98          C  0.4523810  0.7857140  1.4705880    0.00000       Uiso       1.00
       C99          C  0.4047620  0.7857140  1.4705880    0.00000       Uiso       1.00
      C100          C  0.2142860  0.5952380  1.4705880    0.00000       Uiso       1.00
      C101          C  0.2142860  0.5476190  1.4705880    0.00000       Uiso       1.00
      C102          C  0.2619050  0.5476190  1.4705880    0.00000       Uiso       1.00
      H103          H  0.4876310  0.7380950  1.4705880    0.00000       Uiso       1.00
      H104          H  0.4876310  0.8209650  1.4705880    0.00000       Uiso       1.00
      H105          H  0.4047620  0.8209650  1.4705880    0.00000       Uiso       1.00
      H106          H  0.1790350  0.5952380  1.4705880    0.00000       Uiso       1.00
      H107          H  0.1790350  0.5123690  1.4705880    0.00000       Uiso       1.00
      H108          H  0.2619050  0.5123690  1.4705880    0.00000       Uiso       1.00
      C109          C  0.2619050  0.1190480  1.4705880    0.00000       Uiso       1.00
      C110          C  0.3095240  0.1666670  1.4705880    0.00000       Uiso       1.00
      C111          C  0.3571430  0.1666670  1.4705880    0.00000       Uiso       1.00
      C112          C  0.3571430  0.1190480  1.4705880    0.00000       Uiso       1.00
      C113          C  0.4047620  0.2142860  1.4705880    0.00000       Uiso       1.00
      C114          C  0.3095240  0.2142860  1.4705880    0.00000       Uiso       1.00
      C115          C  0.2619050  0.2142860  1.4705880    0.00000       Uiso       1.00
      C116          C  0.2142860  0.1666670  1.4705880    0.00000       Uiso       1.00
      C117          C  0.2142860  0.1190480  1.4705880    0.00000       Uiso       1.00
      C118          C  0.4047620  0.1190480  1.4705880    0.00000       Uiso       1.00
      C119          C  0.4523810  0.1666670  1.4705880    0.00000       Uiso       1.00
      C120          C  0.4523810  0.2142860  1.4705880    0.00000       Uiso       1.00
      H121          H  0.2619050  0.2495360  1.4705880    0.00000       Uiso       1.00
      H122          H  0.1790350  0.1666670  1.4705880    0.00000       Uiso       1.00
      H123          H  0.1790350  0.0837970  1.4705880    0.00000       Uiso       1.00
      H124          H  0.4047620  0.0837970  1.4705880    0.00000       Uiso       1.00
      H125          H  0.4876310  0.1666670  1.4705880    0.00000       Uiso       1.00
      H126          H  0.4876310  0.2495360  1.4705880    0.00000       Uiso       1.00
