data_CTF-2-AB
_audit_creation_date              0000-00-00
_audit_creation_method            'LanYouShi'
_symmetry_space_group_name_H-M    'P1'
_cell_length_a                    18.3600006
_cell_length_b                    18.3600006
_cell_length_c                    6.7199998
_cell_angle_alpha                 90.0000000
_cell_angle_beta                  90.0000000
_cell_angle_gamma                 120.0000000
loop_
_atom_site_label
_atom_site_type_symbol
_atom_site_fract_x
_atom_site_fract_y
_atom_site_fract_z
_atom_site_U_iso_or_equiv
_atom_site_adp_type
_atom_site_occupancy
        C1          C  0.0328500  0.9504700  0.2500000    0.00000       Uiso       1.00
        C2          C  0.0697200  0.8948900  0.2500000    0.00000       Uiso       1.00
        C3          C  0.0521500  0.7548500  0.2500000    0.00000       Uiso       1.00
        C4          C  0.1574500  0.9291400  0.2500000    0.00000       Uiso       1.00
        C5          C  0.0175900  0.8069600  0.2500000    0.00000       Uiso       1.00
        N6          N  0.9482300  0.9138900  0.2500000    0.00000       Uiso       1.00
        C7          C  0.1920200  0.8770300  0.2500000    0.00000       Uiso       1.00
        C8          C  0.1744500  0.7370000  0.2500000    0.00000       Uiso       1.00
        C9          C  0.2797500  0.9112900  0.2500000    0.00000       Uiso       1.00
       C10          C  0.1398900  0.7891100  0.2500000    0.00000       Uiso       1.00
       C11          C  0.3143100  0.8591800  0.2500000    0.00000       Uiso       1.00
       N12          N  0.2477500  0.6314200  0.2500000    0.00000       Uiso       1.00
       C13          C  0.2843300  0.5833800  0.2500000    0.00000       Uiso       1.00
       C14          C  0.2287500  0.4909300  0.2500000    0.00000       Uiso       1.00
       H15          H  0.0093400  0.6836400  0.2500000    0.00000       Uiso       1.00
       H16          H  0.2008200  0.0002700  0.2500000    0.00000       Uiso       1.00
       H17          H  0.9463100  0.7779300  0.2500000    0.00000       Uiso       1.00
       H18          H  0.1316300  0.6657900  0.2500000    0.00000       Uiso       1.00
       H19          H  0.3855200  0.8875800  0.2500000    0.00000       Uiso       1.00
       H20          H  0.3231100  0.9824200  0.2500000    0.00000       Uiso       1.00
       C21          C  0.0495300  0.0823800  0.2500000    0.00000       Uiso       1.00
       C22          C  0.1051100  0.1748300  0.2500000    0.00000       Uiso       1.00
       C23          C  0.2451500  0.2973000  0.2500000    0.00000       Uiso       1.00
       C24          C  0.0708600  0.2283100  0.2500000    0.00000       Uiso       1.00
       C25          C  0.1930400  0.2106300  0.2500000    0.00000       Uiso       1.00
       N26          N  0.0861100  0.0343400  0.2500000    0.00000       Uiso       1.00
       C27          C  0.1229700  0.3149900  0.2500000    0.00000       Uiso       1.00
       C28          C  0.2630000  0.4374500  0.2500000    0.00000       Uiso       1.00
       C29          C  0.0887100  0.3684600  0.2500000    0.00000       Uiso       1.00
       C30          C  0.2108900  0.3507800  0.2500000    0.00000       Uiso       1.00
       C31          C  0.1408200  0.4551300  0.2500000    0.00000       Uiso       1.00
       N32          N  0.3685800  0.6163300  0.2500000    0.00000       Uiso       1.00
       C33          C  0.4166200  0.7009500  0.2500000    0.00000       Uiso       1.00
       C34          C  0.5090700  0.7378200  0.2500000    0.00000       Uiso       1.00
       H35          H  0.3163600  0.3257000  0.2500000    0.00000       Uiso       1.00
       H36          H  0.9997300  0.2005500  0.2500000    0.00000       Uiso       1.00
       H37          H  0.2220700  0.1683800  0.2500000    0.00000       Uiso       1.00
       H38          H  0.3342100  0.4658400  0.2500000    0.00000       Uiso       1.00
       H39          H  0.1124200  0.4979400  0.2500000    0.00000       Uiso       1.00
       H40          H  0.0175800  0.3406900  0.2500000    0.00000       Uiso       1.00
       C41          C  0.9176200  0.9671500  0.2500000    0.00000       Uiso       1.00
       C42          C  0.8251700  0.9302800  0.2500000    0.00000       Uiso       1.00
       C43          C  0.7027000  0.9478500  0.2500000    0.00000       Uiso       1.00
       C44          C  0.7716900  0.8425500  0.2500000    0.00000       Uiso       1.00
       C45          C  0.7893700  0.9824100  0.2500000    0.00000       Uiso       1.00
       N46          N  0.9656600  0.0517700  0.2500000    0.00000       Uiso       1.00
       C47          C  0.6850100  0.8079800  0.2500000    0.00000       Uiso       1.00
       C48          C  0.5625500  0.8255500  0.2500000    0.00000       Uiso       1.00
       C49          C  0.6315400  0.7202500  0.2500000    0.00000       Uiso       1.00
       C50          C  0.6492200  0.8601100  0.2500000    0.00000       Uiso       1.00
       C51          C  0.5448700  0.6856900  0.2500000    0.00000       Uiso       1.00
       N52          N  0.3836700  0.7522500  0.2500000    0.00000       Uiso       1.00
       C53          C  0.2990500  0.7156700  0.2500000    0.00000       Uiso       1.00
       C54          C  0.2621800  0.7712500  0.2500000    0.00000       Uiso       1.00
       H55          H  0.6743000  0.9906600  0.2500000    0.00000       Uiso       1.00
       H56          H  0.7994500  0.7991800  0.2500000    0.00000       Uiso       1.00
       H57          H  0.8316200  0.0536900  0.2500000    0.00000       Uiso       1.00
       H58          H  0.5341600  0.8683700  0.2500000    0.00000       Uiso       1.00
       H59          H  0.5020600  0.6144800  0.2500000    0.00000       Uiso       1.00
       H60          H  0.6593100  0.6768900  0.2500000    0.00000       Uiso       1.00
       C61          C  0.9671500  0.0495300  0.7500000    0.00000       Uiso       1.00
       C62          C  0.9302800  0.1051100  0.7500000    0.00000       Uiso       1.00
       C63          C  0.9478500  0.2451500  0.7500000    0.00000       Uiso       1.00
       C64          C  0.8425500  0.0708600  0.7500000    0.00000       Uiso       1.00
       C65          C  0.9824100  0.1930400  0.7500000    0.00000       Uiso       1.00
       N66          N  0.0517700  0.0861100  0.7500000    0.00000       Uiso       1.00
       C67          C  0.8079800  0.1229700  0.7500000    0.00000       Uiso       1.00
       C68          C  0.8255500  0.2630000  0.7500000    0.00000       Uiso       1.00
       C69          C  0.7202500  0.0887100  0.7500000    0.00000       Uiso       1.00
       C70          C  0.8601100  0.2108900  0.7500000    0.00000       Uiso       1.00
       C71          C  0.6856900  0.1408200  0.7500000    0.00000       Uiso       1.00
       N72          N  0.7522500  0.3685800  0.7500000    0.00000       Uiso       1.00
       C73          C  0.7156700  0.4166200  0.7500000    0.00000       Uiso       1.00
       C74          C  0.7712500  0.5090700  0.7500000    0.00000       Uiso       1.00
       H75          H  0.9906600  0.3163600  0.7500000    0.00000       Uiso       1.00
       H76          H  0.7991800  0.9997300  0.7500000    0.00000       Uiso       1.00
       H77          H  0.0536900  0.2220700  0.7500000    0.00000       Uiso       1.00
       H78          H  0.8683700  0.3342100  0.7500000    0.00000       Uiso       1.00
       H79          H  0.6144800  0.1124200  0.7500000    0.00000       Uiso       1.00
       H80          H  0.6768900  0.0175800  0.7500000    0.00000       Uiso       1.00
       C81          C  0.9504700  0.9176200  0.7500000    0.00000       Uiso       1.00
       C82          C  0.8948900  0.8251700  0.7500000    0.00000       Uiso       1.00
       C83          C  0.7548500  0.7027000  0.7500000    0.00000       Uiso       1.00
       C84          C  0.9291400  0.7716900  0.7500000    0.00000       Uiso       1.00
       C85          C  0.8069600  0.7893700  0.7500000    0.00000       Uiso       1.00
       N86          N  0.9138900  0.9656600  0.7500000    0.00000       Uiso       1.00
       C87          C  0.8770300  0.6850101  0.7500000    0.00000       Uiso       1.00
       C88          C  0.7370000  0.5625500  0.7500000    0.00000       Uiso       1.00
       C89          C  0.9112900  0.6315400  0.7500000    0.00000       Uiso       1.00
       C90          C  0.7891100  0.6492200  0.7500000    0.00000       Uiso       1.00
       C91          C  0.8591800  0.5448700  0.7500000    0.00000       Uiso       1.00
       N92          N  0.6314200  0.3836700  0.7500000    0.00000       Uiso       1.00
       C93          C  0.5833800  0.2990500  0.7500000    0.00000       Uiso       1.00
       C94          C  0.4909300  0.2621800  0.7500000    0.00000       Uiso       1.00
       H95          H  0.6836400  0.6743000  0.7500000    0.00000       Uiso       1.00
       H96          H  0.0002700  0.7994500  0.7500000    0.00000       Uiso       1.00
       H97          H  0.7779300  0.8316200  0.7500000    0.00000       Uiso       1.00
       H98          H  0.6657900  0.5341600  0.7500000    0.00000       Uiso       1.00
       H99          H  0.8875800  0.5020600  0.7500000    0.00000       Uiso       1.00
      H100          H  0.9824200  0.6593100  0.7500000    0.00000       Uiso       1.00
      C101          C  0.0823800  0.0328500  0.7500000    0.00000       Uiso       1.00
      C102          C  0.1748300  0.0697200  0.7500000    0.00000       Uiso       1.00
      C103          C  0.2973000  0.0521500  0.7500000    0.00000       Uiso       1.00
      C104          C  0.2283100  0.1574500  0.7500000    0.00000       Uiso       1.00
      C105          C  0.2106300  0.0175900  0.7500000    0.00000       Uiso       1.00
      N106          N  0.0343400  0.9482300  0.7500000    0.00000       Uiso       1.00
      C107          C  0.3149900  0.1920200  0.7500000    0.00000       Uiso       1.00
      C108          C  0.4374500  0.1744500  0.7500000    0.00000       Uiso       1.00
      C109          C  0.3684600  0.2797500  0.7500000    0.00000       Uiso       1.00
      C110          C  0.3507800  0.1398900  0.7500000    0.00000       Uiso       1.00
      C111          C  0.4551300  0.3143100  0.7500000    0.00000       Uiso       1.00
      N112          N  0.6163300  0.2477500  0.7500000    0.00000       Uiso       1.00
      C113          C  0.7009500  0.2843300  0.7500000    0.00000       Uiso       1.00
      C114          C  0.7378200  0.2287500  0.7500000    0.00000       Uiso       1.00
      H115          H  0.3257000  0.0093400  0.7500000    0.00000       Uiso       1.00
      H116          H  0.2005500  0.2008200  0.7500000    0.00000       Uiso       1.00
      H117          H  0.1683800  0.9463100  0.7500000    0.00000       Uiso       1.00
      H118          H  0.4658400  0.1316300  0.7500000    0.00000       Uiso       1.00
      H119          H  0.4979400  0.3855200  0.7500000    0.00000       Uiso       1.00
      H120          H  0.3406900  0.3231100  0.7500000    0.00000       Uiso       1.00
