data_CuP-Ph_COF
_audit_creation_date              0000-00-00
_audit_creation_method            'LanYouShi'
_symmetry_space_group_name_H-M    'P1'
_cell_length_a                    38.7958984
_cell_length_b                    33.0068016
_cell_length_c                    6.7649999
_cell_angle_alpha                 90.0000000
_cell_angle_beta                  90.0000000
_cell_angle_gamma                 90.0000000
loop_
_atom_site_label
_atom_site_type_symbol
_atom_site_fract_x
_atom_site_fract_y
_atom_site_fract_z
_atom_site_U_iso_or_equiv
_atom_site_adp_type
_atom_site_occupancy
        C1          C  0.2754660  0.7185510  0.5000030    0.00000       Uiso       1.00
        C2          C  0.7754670  0.2185510  0.5000030    0.00000       Uiso       1.00
        C3          C  0.7245350  0.2814480  0.5000030    0.00000       Uiso       1.00
        C4          C  0.2245350  0.7814480  0.5000030    0.00000       Uiso       1.00
        C5          C  0.7245350  0.7185510  0.5000030    0.00000       Uiso       1.00
        C6          C  0.2245350  0.2185510  0.5000030    0.00000       Uiso       1.00
        C7          C  0.2754660  0.2814480  0.5000030    0.00000       Uiso       1.00
        C8          C  0.7754670  0.7814480  0.5000030    0.00000       Uiso       1.00
        C9          C  0.2148640  0.7401050  0.5000030    0.00000       Uiso       1.00
       C10          C  0.7148650  0.2401060  0.5000030    0.00000       Uiso       1.00
       C11          C  0.7851370  0.2598940  0.5000030    0.00000       Uiso       1.00
       C12          C  0.2851370  0.7598930  0.5000030    0.00000       Uiso       1.00
       C13          C  0.7851370  0.7401050  0.5000030    0.00000       Uiso       1.00
       C14          C  0.2851370  0.2401060  0.5000030    0.00000       Uiso       1.00
       C15          C  0.2148640  0.2598940  0.5000030    0.00000       Uiso       1.00
       C16          C  0.7148650  0.7598930  0.5000030    0.00000       Uiso       1.00
       C17          C  0.2398780  0.7091980  0.5000030    0.00000       Uiso       1.00
       C18          C  0.7398780  0.2091990  0.5000030    0.00000       Uiso       1.00
       C19          C  0.7601240  0.2908010  0.5000030    0.00000       Uiso       1.00
       C20          C  0.2601230  0.7908010  0.5000030    0.00000       Uiso       1.00
       C21          C  0.7601240  0.7091980  0.5000030    0.00000       Uiso       1.00
       C22          C  0.2601230  0.2091990  0.5000030    0.00000       Uiso       1.00
       C23          C  0.2398780  0.2908010  0.5000030    0.00000       Uiso       1.00
       C24          C  0.7398780  0.7908010  0.5000030    0.00000       Uiso       1.00
       C25          C  0.9712840  0.9126700  0.5000030    0.00000       Uiso       1.00
       C26          C  0.4712840  0.4126700  0.5000030    0.00000       Uiso       1.00
       C27          C  0.0287170  0.0873290  0.5000030    0.00000       Uiso       1.00
       C28          C  0.5287180  0.5873290  0.5000030    0.00000       Uiso       1.00
       C29          C  0.0287170  0.9126700  0.5000030    0.00000       Uiso       1.00
       C30          C  0.5287180  0.4126700  0.5000030    0.00000       Uiso       1.00
       C31          C  0.9712840  0.0873290  0.5000030    0.00000       Uiso       1.00
       C32          C  0.4712840  0.5873290  0.5000030    0.00000       Uiso       1.00
       C33          C  0.9822690  0.8723850  0.5000030    0.00000       Uiso       1.00
       C34          C  0.4822680  0.3723850  0.5000030    0.00000       Uiso       1.00
       C35          C  0.0177320  0.1276140  0.5000030    0.00000       Uiso       1.00
       C36          C  0.5177330  0.6276140  0.5000030    0.00000       Uiso       1.00
       C37          C  0.0177320  0.8723850  0.5000030    0.00000       Uiso       1.00
       C38          C  0.5177330  0.3723850  0.5000030    0.00000       Uiso       1.00
       C39          C  0.9822690  0.1276140  0.5000030    0.00000       Uiso       1.00
       C40          C  0.4822680  0.6276140  0.5000030    0.00000       Uiso       1.00
       H41          H  0.9671160  0.8470480  0.5000030    0.00000       Uiso       1.00
       H42          H  0.4671150  0.3470490  0.5000030    0.00000       Uiso       1.00
       H43          H  0.0328850  0.1529510  0.5000030    0.00000       Uiso       1.00
       H44          H  0.5328860  0.6529500  0.5000030    0.00000       Uiso       1.00
       H45          H  0.0328850  0.8470480  0.5000030    0.00000       Uiso       1.00
       H46          H  0.5328860  0.3470490  0.5000030    0.00000       Uiso       1.00
       H47          H  0.9671160  0.1529510  0.5000030    0.00000       Uiso       1.00
       H48          H  0.4671150  0.6529500  0.5000030    0.00000       Uiso       1.00
       N49          N  0.4455430  0.5000000  0.5000030    0.00000       Uiso       1.00
       N50          N  0.9455430  0.0000000  0.5000030    0.00000       Uiso       1.00
       N51          N  0.5544580  0.5000000  0.5000030    0.00000       Uiso       1.00
       N52          N  0.0544580  0.0000000  0.5000030    0.00000       Uiso       1.00
       C53          C  0.4257090  0.4662460  0.5000030    0.00000       Uiso       1.00
       C54          C  0.9257090  0.9662450  0.5000030    0.00000       Uiso       1.00
       C55          C  0.5742920  0.5337540  0.5000030    0.00000       Uiso       1.00
       C56          C  0.0742920  0.0337540  0.5000030    0.00000       Uiso       1.00
       C57          C  0.5742920  0.4662460  0.5000030    0.00000       Uiso       1.00
       C58          C  0.0742920  0.9662450  0.5000030    0.00000       Uiso       1.00
       C59          C  0.4257090  0.5337540  0.5000030    0.00000       Uiso       1.00
       C60          C  0.9257090  0.0337540  0.5000030    0.00000       Uiso       1.00
       C61          C  0.3914340  0.4791580  0.5000030    0.00000       Uiso       1.00
       C62          C  0.8914350  0.9791580  0.5000030    0.00000       Uiso       1.00
       C63          C  0.6085670  0.5208410  0.5000030    0.00000       Uiso       1.00
       C64          C  0.1085660  0.0208410  0.5000030    0.00000       Uiso       1.00
       C65          C  0.6085670  0.4791580  0.5000030    0.00000       Uiso       1.00
       C66          C  0.1085660  0.9791580  0.5000030    0.00000       Uiso       1.00
       C67          C  0.3914340  0.5208410  0.5000030    0.00000       Uiso       1.00
       C68          C  0.8914350  0.0208410  0.5000030    0.00000       Uiso       1.00
       H69          H  0.3698790  0.4613550  0.5000030    0.00000       Uiso       1.00
       H70          H  0.8698790  0.9613550  0.5000030    0.00000       Uiso       1.00
       H71          H  0.6301230  0.5386440  0.5000030    0.00000       Uiso       1.00
       H72          H  0.1301220  0.0386440  0.5000030    0.00000       Uiso       1.00
       H73          H  0.6301230  0.4613550  0.5000030    0.00000       Uiso       1.00
       H74          H  0.1301220  0.9613550  0.5000030    0.00000       Uiso       1.00
       H75          H  0.3698790  0.5386440  0.5000030    0.00000       Uiso       1.00
       H76          H  0.8698790  0.0386440  0.5000030    0.00000       Uiso       1.00
       C77          C  0.9364240  0.9252680  0.5000030    0.00000       Uiso       1.00
       C78          C  0.4364230  0.4252690  0.5000030    0.00000       Uiso       1.00
       C79          C  0.0635780  0.0747310  0.5000030    0.00000       Uiso       1.00
       C80          C  0.5635780  0.5747300  0.5000030    0.00000       Uiso       1.00
       C81          C  0.0635780  0.9252680  0.5000030    0.00000       Uiso       1.00
       C82          C  0.5635780  0.4252690  0.5000030    0.00000       Uiso       1.00
       C83          C  0.9364240  0.0747310  0.5000030    0.00000       Uiso       1.00
       C84          C  0.4364230  0.5747300  0.5000030    0.00000       Uiso       1.00
       C85          C  0.9106600  0.8949910  0.5000030    0.00000       Uiso       1.00
       C86          C  0.4106590  0.3949910  0.5000030    0.00000       Uiso       1.00
       C87          C  0.0893410  0.1050090  0.5000030    0.00000       Uiso       1.00
       C88          C  0.5893420  0.6050080  0.5000030    0.00000       Uiso       1.00
       C89          C  0.0893410  0.8949910  0.5000030    0.00000       Uiso       1.00
       C90          C  0.5893420  0.3949910  0.5000030    0.00000       Uiso       1.00
       C91          C  0.9106600  0.1050090  0.5000030    0.00000       Uiso       1.00
       C92          C  0.4106590  0.6050080  0.5000030    0.00000       Uiso       1.00
       C93          C  0.3976660  0.3796870  0.6802840    0.00000       Uiso       1.00
       C94          C  0.8976670  0.8796860  0.6802840    0.00000       Uiso       1.00
       C95          C  0.6023350  0.6203130  0.6802840    0.00000       Uiso       1.00
       C96          C  0.1023350  0.1203130  0.6802840    0.00000       Uiso       1.00
       C97          C  0.6023350  0.3796870  0.3197220    0.00000       Uiso       1.00
       C98          C  0.1023350  0.8796860  0.3197220    0.00000       Uiso       1.00
       C99          C  0.3976660  0.6203130  0.3197220    0.00000       Uiso       1.00
      C100          C  0.8976670  0.1203130  0.3197220    0.00000       Uiso       1.00
      C101          C  0.6023350  0.6203130  0.3197220    0.00000       Uiso       1.00
      C102          C  0.1023350  0.1203130  0.3197220    0.00000       Uiso       1.00
      C103          C  0.3976660  0.3796870  0.3197220    0.00000       Uiso       1.00
      C104          C  0.8976670  0.8796860  0.3197220    0.00000       Uiso       1.00
      C105          C  0.3976660  0.6203130  0.6802840    0.00000       Uiso       1.00
      C106          C  0.8976670  0.1203130  0.6802840    0.00000       Uiso       1.00
      C107          C  0.6023350  0.3796870  0.6802840    0.00000       Uiso       1.00
      C108          C  0.1023350  0.8796860  0.6802840    0.00000       Uiso       1.00
      H109          H  0.9068401  0.8903720  0.8121810    0.00000       Uiso       1.00
      H110          H  0.4068390  0.3903730  0.8121810    0.00000       Uiso       1.00
      H111          H  0.0931610  0.1096270  0.8121810    0.00000       Uiso       1.00
      H112          H  0.5931620  0.6096260  0.8121810    0.00000       Uiso       1.00
      H113          H  0.0931610  0.8903720  0.1878250    0.00000       Uiso       1.00
      H114          H  0.5931620  0.3903730  0.1878250    0.00000       Uiso       1.00
      H115          H  0.9068401  0.1096270  0.1878250    0.00000       Uiso       1.00
      H116          H  0.4068390  0.6096260  0.1878250    0.00000       Uiso       1.00
      H117          H  0.0931610  0.1096270  0.1878250    0.00000       Uiso       1.00
      H118          H  0.5931620  0.6096260  0.1878250    0.00000       Uiso       1.00
      H119          H  0.9068401  0.8903720  0.1878250    0.00000       Uiso       1.00
      H120          H  0.4068390  0.3903730  0.1878250    0.00000       Uiso       1.00
      H121          H  0.9068401  0.1096270  0.8121810    0.00000       Uiso       1.00
      H122          H  0.4068390  0.6096260  0.8121810    0.00000       Uiso       1.00
      H123          H  0.0931610  0.8903720  0.8121810    0.00000       Uiso       1.00
      H124          H  0.5931620  0.3903730  0.8121810    0.00000       Uiso       1.00
      C125          C  0.8719790  0.8495410  0.6799040    0.00000       Uiso       1.00
      C126          C  0.3719790  0.3495410  0.6799040    0.00000       Uiso       1.00
      C127          C  0.1280220  0.1504580  0.6799040    0.00000       Uiso       1.00
      C128          C  0.6280230  0.6504580  0.6799040    0.00000       Uiso       1.00
      C129          C  0.1280220  0.8495410  0.3201020    0.00000       Uiso       1.00
      C130          C  0.6280230  0.3495410  0.3201020    0.00000       Uiso       1.00
      C131          C  0.8719790  0.1504580  0.3201020    0.00000       Uiso       1.00
      C132          C  0.3719790  0.6504580  0.3201020    0.00000       Uiso       1.00
      C133          C  0.1280220  0.1504580  0.3201020    0.00000       Uiso       1.00
      C134          C  0.6280230  0.6504580  0.3201020    0.00000       Uiso       1.00
      C135          C  0.8719790  0.8495410  0.3201020    0.00000       Uiso       1.00
      C136          C  0.3719790  0.3495410  0.3201020    0.00000       Uiso       1.00
      C137          C  0.8719790  0.1504580  0.6799040    0.00000       Uiso       1.00
      C138          C  0.3719790  0.6504580  0.6799040    0.00000       Uiso       1.00
      C139          C  0.1280220  0.8495410  0.6799040    0.00000       Uiso       1.00
      C140          C  0.6280230  0.3495410  0.6799040    0.00000       Uiso       1.00
      H141          H  0.8626970  0.8384800  0.8104930    0.00000       Uiso       1.00
      H142          H  0.3626970  0.3384800  0.8104930    0.00000       Uiso       1.00
      H143          H  0.1373040  0.1615190  0.8104930    0.00000       Uiso       1.00
      H144          H  0.6373050  0.6615190  0.8104930    0.00000       Uiso       1.00
      H145          H  0.1373040  0.8384800  0.1895130    0.00000       Uiso       1.00
      H146          H  0.6373050  0.3384800  0.1895130    0.00000       Uiso       1.00
      H147          H  0.8626970  0.1615190  0.1895130    0.00000       Uiso       1.00
      H148          H  0.3626970  0.6615190  0.1895130    0.00000       Uiso       1.00
      H149          H  0.1373040  0.1615190  0.1895130    0.00000       Uiso       1.00
      H150          H  0.6373050  0.6615190  0.1895130    0.00000       Uiso       1.00
      H151          H  0.8626970  0.8384800  0.1895130    0.00000       Uiso       1.00
      H152          H  0.3626970  0.3384800  0.1895130    0.00000       Uiso       1.00
      H153          H  0.8626970  0.1615190  0.8104930    0.00000       Uiso       1.00
      H154          H  0.3626970  0.6615190  0.8104930    0.00000       Uiso       1.00
      H155          H  0.1373040  0.8384800  0.8104930    0.00000       Uiso       1.00
      H156          H  0.6373050  0.3384800  0.8104930    0.00000       Uiso       1.00
      C157          C  0.8589640  0.8344960  0.5000030    0.00000       Uiso       1.00
      C158          C  0.3589640  0.3344960  0.5000030    0.00000       Uiso       1.00
      C159          C  0.1410370  0.1655030  0.5000030    0.00000       Uiso       1.00
      C160          C  0.6410380  0.6655030  0.5000030    0.00000       Uiso       1.00
      C161          C  0.1410370  0.8344960  0.5000030    0.00000       Uiso       1.00
      C162          C  0.6410380  0.3344960  0.5000030    0.00000       Uiso       1.00
      C163          C  0.8589640  0.1655030  0.5000030    0.00000       Uiso       1.00
      C164          C  0.3589640  0.6655030  0.5000030    0.00000       Uiso       1.00
      H165          H  0.1893670  0.7321160  0.5000030    0.00000       Uiso       1.00
      H166          H  0.6893680  0.2321160  0.5000030    0.00000       Uiso       1.00
      H167          H  0.8106340  0.2678830  0.5000030    0.00000       Uiso       1.00
      H168          H  0.3106330  0.7678830  0.5000030    0.00000       Uiso       1.00
      H169          H  0.8106340  0.7321160  0.5000030    0.00000       Uiso       1.00
      H170          H  0.3106330  0.2321160  0.5000030    0.00000       Uiso       1.00
      H171          H  0.1893670  0.2678830  0.5000030    0.00000       Uiso       1.00
      H172          H  0.6893680  0.7678830  0.5000030    0.00000       Uiso       1.00
     Cu173         Cu  0.5000010  0.5000000  0.5000030    0.00000       Uiso       1.00
     Cu174         Cu  0.0000000  0.0000000  0.5000030    0.00000       Uiso       1.00
      C175          C  0.3000600  0.6870920  0.5000030    0.00000       Uiso       1.00
      H176          H  0.2916940  0.6576020  0.5000030    0.00000       Uiso       1.00
      C177          C  0.8000600  0.1870930  0.5000030    0.00000       Uiso       1.00
      H178          H  0.7916950  0.1576030  0.5000030    0.00000       Uiso       1.00
      C179          C  0.6999420  0.3129070  0.5000030    0.00000       Uiso       1.00
      H180          H  0.7083070  0.3423970  0.5000030    0.00000       Uiso       1.00
      C181          C  0.1999410  0.8129070  0.5000030    0.00000       Uiso       1.00
      H182          H  0.2083070  0.8423960  0.5000030    0.00000       Uiso       1.00
      C183          C  0.6999420  0.6870920  0.5000030    0.00000       Uiso       1.00
      H184          H  0.7083070  0.6576020  0.5000030    0.00000       Uiso       1.00
      C185          C  0.1999410  0.1870930  0.5000030    0.00000       Uiso       1.00
      H186          H  0.2083070  0.1576030  0.5000030    0.00000       Uiso       1.00
      C187          C  0.3000600  0.3129070  0.5000030    0.00000       Uiso       1.00
      H188          H  0.2916940  0.3423970  0.5000030    0.00000       Uiso       1.00
      C189          C  0.8000600  0.8129070  0.5000030    0.00000       Uiso       1.00
      H190          H  0.7916950  0.8423960  0.5000030    0.00000       Uiso       1.00
      H191          H  0.2317490  0.6796830  0.5000030    0.00000       Uiso       1.00
      H192          H  0.7317500  0.1796830  0.5000030    0.00000       Uiso       1.00
      H193          H  0.7682520  0.3203170  0.5000030    0.00000       Uiso       1.00
      H194          H  0.2682520  0.8203160  0.5000030    0.00000       Uiso       1.00
      H195          H  0.7682520  0.6796830  0.5000030    0.00000       Uiso       1.00
      H196          H  0.2682520  0.1796830  0.5000030    0.00000       Uiso       1.00
      H197          H  0.2317490  0.3203170  0.5000030    0.00000       Uiso       1.00
      H198          H  0.7317500  0.8203160  0.5000030    0.00000       Uiso       1.00
      N199          N  0.3343790  0.6943880  0.5000030    0.00000       Uiso       1.00
      N200          N  0.8343790  0.1943880  0.5000030    0.00000       Uiso       1.00
      N201          N  0.6656230  0.3056110  0.5000030    0.00000       Uiso       1.00
      N202          N  0.1656220  0.8056110  0.5000030    0.00000       Uiso       1.00
      N203          N  0.6656230  0.6943880  0.5000030    0.00000       Uiso       1.00
      N204          N  0.1656220  0.1943880  0.5000030    0.00000       Uiso       1.00
      N205          N  0.3343790  0.3056110  0.5000030    0.00000       Uiso       1.00
      N206          N  0.8343790  0.8056110  0.5000030    0.00000       Uiso       1.00
      N207          N  0.0000000  0.9359820  0.5000030    0.00000       Uiso       1.00
      N208          N  0.5000010  0.4359820  0.5000030    0.00000       Uiso       1.00
      N209          N  0.0000000  0.0640170  0.5000030    0.00000       Uiso       1.00
      N210          N  0.5000010  0.5640170  0.5000030    0.00000       Uiso       1.00
