data_CuP-TFPh
_audit_creation_date              0000-00-00
_audit_creation_method            'LanYouShi'
_symmetry_space_group_name_H-M    'P1'
_cell_length_a                    38.7831993
_cell_length_b                    33.3573990
_cell_length_c                    6.9425998
_cell_angle_alpha                 90.0000000
_cell_angle_beta                  90.0000000
_cell_angle_gamma                 90.0000000
loop_
_atom_site_label
_atom_site_type_symbol
_atom_site_fract_x
_atom_site_fract_y
_atom_site_fract_z
_atom_site_U_iso_or_equiv
_atom_site_adp_type
_atom_site_occupancy
        C1          C  0.2760580  0.7188560  0.5000010    0.00000       Uiso       1.00
        C2          C  0.7760590  0.2188560  0.5000010    0.00000       Uiso       1.00
        C3          C  0.7239430  0.2811440  0.5000010    0.00000       Uiso       1.00
        C4          C  0.2239420  0.7811430  0.5000010    0.00000       Uiso       1.00
        C5          C  0.7239430  0.7188560  0.5000010    0.00000       Uiso       1.00
        C6          C  0.2239420  0.2188560  0.5000010    0.00000       Uiso       1.00
        C7          C  0.2760580  0.2811440  0.5000010    0.00000       Uiso       1.00
        C8          C  0.7760590  0.7811430  0.5000010    0.00000       Uiso       1.00
        C9          C  0.2147130  0.7400370  0.5000010    0.00000       Uiso       1.00
       C10          C  0.7147140  0.2400370  0.5000010    0.00000       Uiso       1.00
       C11          C  0.7852880  0.2599630  0.5000010    0.00000       Uiso       1.00
       C12          C  0.2852870  0.7599630  0.5000010    0.00000       Uiso       1.00
       C13          C  0.7852880  0.7400370  0.5000010    0.00000       Uiso       1.00
       C14          C  0.2852870  0.2400370  0.5000010    0.00000       Uiso       1.00
       C15          C  0.2147130  0.2599630  0.5000010    0.00000       Uiso       1.00
       C16          C  0.7147140  0.7599630  0.5000010    0.00000       Uiso       1.00
       C17          C  0.2404400  0.7095520  0.5000010    0.00000       Uiso       1.00
       C18          C  0.7404400  0.2095520  0.5000010    0.00000       Uiso       1.00
       C19          C  0.7595620  0.2904480  0.5000010    0.00000       Uiso       1.00
       C20          C  0.2595610  0.7904470  0.5000010    0.00000       Uiso       1.00
       C21          C  0.7595620  0.7095520  0.5000010    0.00000       Uiso       1.00
       C22          C  0.2595610  0.2095520  0.5000010    0.00000       Uiso       1.00
       C23          C  0.2404400  0.2904480  0.5000010    0.00000       Uiso       1.00
       C24          C  0.7404400  0.7904470  0.5000010    0.00000       Uiso       1.00
       C25          C  0.9712670  0.9135730  0.5000010    0.00000       Uiso       1.00
       C26          C  0.4712670  0.4135730  0.5000010    0.00000       Uiso       1.00
       C27          C  0.0287340  0.0864270  0.5000010    0.00000       Uiso       1.00
       C28          C  0.5287350  0.5864260  0.5000010    0.00000       Uiso       1.00
       C29          C  0.0287340  0.9135730  0.5000010    0.00000       Uiso       1.00
       C30          C  0.5287350  0.4135730  0.5000010    0.00000       Uiso       1.00
       C31          C  0.9712670  0.0864270  0.5000010    0.00000       Uiso       1.00
       C32          C  0.4712670  0.5864260  0.5000010    0.00000       Uiso       1.00
       C33          C  0.9822590  0.8737100  0.5000010    0.00000       Uiso       1.00
       C34          C  0.4822580  0.3737100  0.5000010    0.00000       Uiso       1.00
       C35          C  0.0177420  0.1262900  0.5000010    0.00000       Uiso       1.00
       C36          C  0.5177430  0.6262900  0.5000010    0.00000       Uiso       1.00
       C37          C  0.0177420  0.8737100  0.5000010    0.00000       Uiso       1.00
       C38          C  0.5177430  0.3737100  0.5000010    0.00000       Uiso       1.00
       C39          C  0.9822590  0.1262900  0.5000010    0.00000       Uiso       1.00
       C40          C  0.4822580  0.6262900  0.5000010    0.00000       Uiso       1.00
       H41          H  0.9670960  0.8486130  0.5000010    0.00000       Uiso       1.00
       H42          H  0.4670950  0.3486130  0.5000010    0.00000       Uiso       1.00
       H43          H  0.0329050  0.1513870  0.5000010    0.00000       Uiso       1.00
       H44          H  0.5329060  0.6513870  0.5000010    0.00000       Uiso       1.00
       H45          H  0.0329050  0.8486130  0.5000010    0.00000       Uiso       1.00
       H46          H  0.5329060  0.3486130  0.5000010    0.00000       Uiso       1.00
       H47          H  0.9670960  0.1513870  0.5000010    0.00000       Uiso       1.00
       H48          H  0.4670950  0.6513870  0.5000010    0.00000       Uiso       1.00
       N49          N  0.4454920  0.5000000  0.5000010    0.00000       Uiso       1.00
       N50          N  0.9454930  0.0000000  0.5000010    0.00000       Uiso       1.00
       N51          N  0.5545090  0.5000000  0.5000010    0.00000       Uiso       1.00
       N52          N  0.0545090  0.0000000  0.5000010    0.00000       Uiso       1.00
       C53          C  0.4256560  0.4665950  0.5000010    0.00000       Uiso       1.00
       C54          C  0.9256570  0.9665950  0.5000010    0.00000       Uiso       1.00
       C55          C  0.5743450  0.5334050  0.5000010    0.00000       Uiso       1.00
       C56          C  0.0743440  0.0334050  0.5000010    0.00000       Uiso       1.00
       C57          C  0.5743450  0.4665950  0.5000010    0.00000       Uiso       1.00
       C58          C  0.0743440  0.9665950  0.5000010    0.00000       Uiso       1.00
       C59          C  0.4256560  0.5334050  0.5000010    0.00000       Uiso       1.00
       C60          C  0.9256570  0.0334050  0.5000010    0.00000       Uiso       1.00
       C61          C  0.3913710  0.4793720  0.5000010    0.00000       Uiso       1.00
       C62          C  0.8913720  0.9793720  0.5000010    0.00000       Uiso       1.00
       C63          C  0.6086300  0.5206280  0.5000010    0.00000       Uiso       1.00
       C64          C  0.1086290  0.0206280  0.5000010    0.00000       Uiso       1.00
       C65          C  0.6086300  0.4793720  0.5000010    0.00000       Uiso       1.00
       C66          C  0.1086290  0.9793720  0.5000010    0.00000       Uiso       1.00
       C67          C  0.3913710  0.5206280  0.5000010    0.00000       Uiso       1.00
       C68          C  0.8913720  0.0206280  0.5000010    0.00000       Uiso       1.00
       H69          H  0.3697950  0.4617480  0.5000010    0.00000       Uiso       1.00
       H70          H  0.8697960  0.9617481  0.5000010    0.00000       Uiso       1.00
       H71          H  0.6302060  0.5382520  0.5000010    0.00000       Uiso       1.00
       H72          H  0.1302060  0.0382520  0.5000010    0.00000       Uiso       1.00
       H73          H  0.6302060  0.4617480  0.5000010    0.00000       Uiso       1.00
       H74          H  0.1302060  0.9617481  0.5000010    0.00000       Uiso       1.00
       H75          H  0.3697950  0.5382520  0.5000010    0.00000       Uiso       1.00
       H76          H  0.8697960  0.0382520  0.5000010    0.00000       Uiso       1.00
       C77          C  0.9363919  0.9260530  0.5000010    0.00000       Uiso       1.00
       C78          C  0.4363910  0.4260530  0.5000010    0.00000       Uiso       1.00
       C79          C  0.0636090  0.0739470  0.5000010    0.00000       Uiso       1.00
       C80          C  0.5636100  0.5739460  0.5000010    0.00000       Uiso       1.00
       C81          C  0.0636090  0.9260530  0.5000010    0.00000       Uiso       1.00
       C82          C  0.5636100  0.4260530  0.5000010    0.00000       Uiso       1.00
       C83          C  0.9363919  0.0739470  0.5000010    0.00000       Uiso       1.00
       C84          C  0.4363910  0.5739460  0.5000010    0.00000       Uiso       1.00
       C85          C  0.9106470  0.8960670  0.5000010    0.00000       Uiso       1.00
       C86          C  0.4106460  0.3960670  0.5000010    0.00000       Uiso       1.00
       C87          C  0.0893550  0.1039330  0.5000010    0.00000       Uiso       1.00
       C88          C  0.5893550  0.6039330  0.5000010    0.00000       Uiso       1.00
       C89          C  0.0893550  0.8960670  0.5000010    0.00000       Uiso       1.00
       C90          C  0.5893550  0.3960670  0.5000010    0.00000       Uiso       1.00
       C91          C  0.9106470  0.1039330  0.5000010    0.00000       Uiso       1.00
       C92          C  0.4106460  0.6039330  0.5000010    0.00000       Uiso       1.00
       C93          C  0.3977350  0.3808370  0.6757660    0.00000       Uiso       1.00
       C94          C  0.8977360  0.8808370  0.6757660    0.00000       Uiso       1.00
       C95          C  0.6022660  0.6191620  0.6757660    0.00000       Uiso       1.00
       C96          C  0.1022650  0.1191620  0.6757660    0.00000       Uiso       1.00
       C97          C  0.6022660  0.3808370  0.3242360    0.00000       Uiso       1.00
       C98          C  0.1022650  0.8808370  0.3242360    0.00000       Uiso       1.00
       C99          C  0.3977350  0.6191620  0.3242360    0.00000       Uiso       1.00
      C100          C  0.8977360  0.1191620  0.3242360    0.00000       Uiso       1.00
      C101          C  0.6022660  0.6191620  0.3242360    0.00000       Uiso       1.00
      C102          C  0.1022650  0.1191620  0.3242360    0.00000       Uiso       1.00
      C103          C  0.3977350  0.3808370  0.3242360    0.00000       Uiso       1.00
      C104          C  0.8977360  0.8808370  0.3242360    0.00000       Uiso       1.00
      C105          C  0.3977350  0.6191620  0.6757660    0.00000       Uiso       1.00
      C106          C  0.8977360  0.1191620  0.6757660    0.00000       Uiso       1.00
      C107          C  0.6022660  0.3808370  0.6757660    0.00000       Uiso       1.00
      C108          C  0.1022650  0.8808370  0.6757660    0.00000       Uiso       1.00
      H109          H  0.9068769  0.8914410  0.8044530    0.00000       Uiso       1.00
      H110          H  0.4068760  0.3914410  0.8044530    0.00000       Uiso       1.00
      H111          H  0.0931240  0.1085590  0.8044530    0.00000       Uiso       1.00
      H112          H  0.5931250  0.6085590  0.8044530    0.00000       Uiso       1.00
      H113          H  0.0931240  0.8914410  0.1955500    0.00000       Uiso       1.00
      H114          H  0.5931250  0.3914410  0.1955500    0.00000       Uiso       1.00
      H115          H  0.9068769  0.1085590  0.1955500    0.00000       Uiso       1.00
      H116          H  0.4068760  0.6085590  0.1955500    0.00000       Uiso       1.00
      H117          H  0.0931240  0.1085590  0.1955500    0.00000       Uiso       1.00
      H118          H  0.5931250  0.6085590  0.1955500    0.00000       Uiso       1.00
      H119          H  0.9068769  0.8914410  0.1955500    0.00000       Uiso       1.00
      H120          H  0.4068760  0.3914410  0.1955500    0.00000       Uiso       1.00
      H121          H  0.9068769  0.1085590  0.8044530    0.00000       Uiso       1.00
      H122          H  0.4068760  0.6085590  0.8044530    0.00000       Uiso       1.00
      H123          H  0.0931240  0.8914410  0.8044530    0.00000       Uiso       1.00
      H124          H  0.5931250  0.3914410  0.8044530    0.00000       Uiso       1.00
      C125          C  0.8722450  0.8507610  0.6753780    0.00000       Uiso       1.00
      C126          C  0.3722450  0.3507610  0.6753780    0.00000       Uiso       1.00
      C127          C  0.1277560  0.1492390  0.6753780    0.00000       Uiso       1.00
      C128          C  0.6277560  0.6492390  0.6753780    0.00000       Uiso       1.00
      C129          C  0.1277560  0.8507610  0.3246250    0.00000       Uiso       1.00
      C130          C  0.6277560  0.3507610  0.3246250    0.00000       Uiso       1.00
      C131          C  0.8722450  0.1492390  0.3246250    0.00000       Uiso       1.00
      C132          C  0.3722450  0.6492390  0.3246250    0.00000       Uiso       1.00
      C133          C  0.1277560  0.1492390  0.3246250    0.00000       Uiso       1.00
      C134          C  0.6277560  0.6492390  0.3246250    0.00000       Uiso       1.00
      C135          C  0.8722450  0.8507610  0.3246250    0.00000       Uiso       1.00
      C136          C  0.3722450  0.3507610  0.3246250    0.00000       Uiso       1.00
      C137          C  0.8722450  0.1492390  0.6753780    0.00000       Uiso       1.00
      C138          C  0.3722450  0.6492390  0.6753780    0.00000       Uiso       1.00
      C139          C  0.1277560  0.8507610  0.6753780    0.00000       Uiso       1.00
      C140          C  0.6277560  0.3507610  0.6753780    0.00000       Uiso       1.00
      H141          H  0.8631129  0.8395640  0.8026280    0.00000       Uiso       1.00
      H142          H  0.3631120  0.3395640  0.8026280    0.00000       Uiso       1.00
      H143          H  0.1368880  0.1604360  0.8026280    0.00000       Uiso       1.00
      H144          H  0.6368890  0.6604360  0.8026280    0.00000       Uiso       1.00
      H145          H  0.1368880  0.8395640  0.1973750    0.00000       Uiso       1.00
      H146          H  0.6368890  0.3395640  0.1973750    0.00000       Uiso       1.00
      H147          H  0.8631129  0.1604360  0.1973750    0.00000       Uiso       1.00
      H148          H  0.3631120  0.6604360  0.1973750    0.00000       Uiso       1.00
      H149          H  0.1368880  0.1604360  0.1973750    0.00000       Uiso       1.00
      H150          H  0.6368890  0.6604360  0.1973750    0.00000       Uiso       1.00
      H151          H  0.8631129  0.8395640  0.1973750    0.00000       Uiso       1.00
      H152          H  0.3631120  0.3395640  0.1973750    0.00000       Uiso       1.00
      H153          H  0.8631129  0.1604360  0.8026280    0.00000       Uiso       1.00
      H154          H  0.3631120  0.6604360  0.8026280    0.00000       Uiso       1.00
      H155          H  0.1368880  0.8395640  0.8026280    0.00000       Uiso       1.00
      H156          H  0.6368890  0.3395640  0.8026280    0.00000       Uiso       1.00
      C157          C  0.8593130  0.8357990  0.5000010    0.00000       Uiso       1.00
      C158          C  0.3593130  0.3357990  0.5000010    0.00000       Uiso       1.00
      C159          C  0.1406880  0.1642010  0.5000010    0.00000       Uiso       1.00
      C160          C  0.6406880  0.6642010  0.5000010    0.00000       Uiso       1.00
      C161          C  0.1406880  0.8357990  0.5000010    0.00000       Uiso       1.00
      C162          C  0.6406880  0.3357990  0.5000010    0.00000       Uiso       1.00
      C163          C  0.8593130  0.1642010  0.5000010    0.00000       Uiso       1.00
      C164          C  0.3593130  0.6642010  0.5000010    0.00000       Uiso       1.00
      F165          F  0.1820470  0.7299980  0.5000010    0.00000       Uiso       1.00
      F166          F  0.6820480  0.2299980  0.5000010    0.00000       Uiso       1.00
      F167          F  0.8179540  0.2700020  0.5000010    0.00000       Uiso       1.00
      F168          F  0.3179530  0.7700020  0.5000010    0.00000       Uiso       1.00
      F169          F  0.8179540  0.7299980  0.5000010    0.00000       Uiso       1.00
      F170          F  0.3179530  0.2299980  0.5000010    0.00000       Uiso       1.00
      F171          F  0.1820470  0.2700020  0.5000010    0.00000       Uiso       1.00
      F172          F  0.6820480  0.7700020  0.5000010    0.00000       Uiso       1.00
     Cu173         Cu  0.5000010  0.5000000  0.5000010    0.00000       Uiso       1.00
     Cu174         Cu  0.0000000  0.0000000  0.5000010    0.00000       Uiso       1.00
      C175          C  0.3005680  0.6872250  0.5000010    0.00000       Uiso       1.00
      H176          H  0.2921240  0.6579830  0.5000010    0.00000       Uiso       1.00
      C177          C  0.8005690  0.1872250  0.5000010    0.00000       Uiso       1.00
      H178          H  0.7921250  0.1579840  0.5000010    0.00000       Uiso       1.00
      C179          C  0.6994330  0.3127750  0.5000010    0.00000       Uiso       1.00
      H180          H  0.7078770  0.3420160  0.5000010    0.00000       Uiso       1.00
      C181          C  0.1994320  0.8127750  0.5000010    0.00000       Uiso       1.00
      H182          H  0.2078770  0.8420160  0.5000010    0.00000       Uiso       1.00
      C183          C  0.6994330  0.6872250  0.5000010    0.00000       Uiso       1.00
      H184          H  0.7078770  0.6579830  0.5000010    0.00000       Uiso       1.00
      C185          C  0.1994320  0.1872250  0.5000010    0.00000       Uiso       1.00
      H186          H  0.2078770  0.1579840  0.5000010    0.00000       Uiso       1.00
      C187          C  0.3005680  0.3127750  0.5000010    0.00000       Uiso       1.00
      H188          H  0.2921240  0.3420160  0.5000010    0.00000       Uiso       1.00
      C189          C  0.8005690  0.8127750  0.5000010    0.00000       Uiso       1.00
      H190          H  0.7921250  0.8420160  0.5000010    0.00000       Uiso       1.00
      F191          F  0.2319780  0.6713650  0.5000010    0.00000       Uiso       1.00
      F192          F  0.7319780  0.1713650  0.5000010    0.00000       Uiso       1.00
      F193          F  0.7680230  0.3286350  0.5000010    0.00000       Uiso       1.00
      F194          F  0.2680230  0.8286350  0.5000010    0.00000       Uiso       1.00
      F195          F  0.7680230  0.6713650  0.5000010    0.00000       Uiso       1.00
      F196          F  0.2680230  0.1713650  0.5000010    0.00000       Uiso       1.00
      F197          F  0.2319780  0.3286350  0.5000010    0.00000       Uiso       1.00
      F198          F  0.7319780  0.8286350  0.5000010    0.00000       Uiso       1.00
      N199          N  0.3350240  0.6930840  0.5000010    0.00000       Uiso       1.00
      N200          N  0.8350250  0.1930840  0.5000010    0.00000       Uiso       1.00
      N201          N  0.6649770  0.3069160  0.5000010    0.00000       Uiso       1.00
      N202          N  0.1649760  0.8069160  0.5000010    0.00000       Uiso       1.00
      N203          N  0.6649770  0.6930840  0.5000010    0.00000       Uiso       1.00
      N204          N  0.1649760  0.1930840  0.5000010    0.00000       Uiso       1.00
      N205          N  0.3350240  0.3069160  0.5000010    0.00000       Uiso       1.00
      N206          N  0.8350250  0.8069160  0.5000010    0.00000       Uiso       1.00
      N207          N  0.0000000  0.9366350  0.5000010    0.00000       Uiso       1.00
      N208          N  0.5000010  0.4366350  0.5000010    0.00000       Uiso       1.00
      N209          N  0.0000000  0.0633640  0.5000010    0.00000       Uiso       1.00
      N210          N  0.5000010  0.5633640  0.5000010    0.00000       Uiso       1.00
