data_DAAQ-TFP_COF
_audit_creation_date              0000-00-00
_audit_creation_method            'LanYouShi'
_symmetry_space_group_name_H-M    'P1'
_cell_length_a                    29.8330002
_cell_length_b                    29.8330002
_cell_length_c                    3.5999999
_cell_angle_alpha                 90.0000000
_cell_angle_beta                  90.0000000
_cell_angle_gamma                 60.0000000
loop_
_atom_site_label
_atom_site_type_symbol
_atom_site_fract_x
_atom_site_fract_y
_atom_site_fract_z
_atom_site_U_iso_or_equiv
_atom_site_adp_type
_atom_site_occupancy
        C1          C  0.4069100  0.3624000  1.3888890    0.00000       Uiso       1.00
        N2          N  0.3999600  0.4116300  1.3888890    0.00000       Uiso       1.00
        C3          C  0.4392100  0.4231800  1.3888890    0.00000       Uiso       1.00
        C4          C  0.4894700  0.3868300  1.3888890    0.00000       Uiso       1.00
        C5          C  0.5500600  0.4632000  1.3888890    0.00000       Uiso       1.00
        C6          C  0.5133000  0.4498400  1.3888890    0.00000       Uiso       1.00
        C7          C  0.4630500  0.4867500  1.3888890    0.00000       Uiso       1.00
        C8          C  0.5259100  0.4000500  1.3888890    0.00000       Uiso       1.00
        C9          C  0.4266800  0.4729000  1.3888890    0.00000       Uiso       1.00
       O10          O  0.4065800  0.5687200  1.3888890    0.00000       Uiso       1.00
       H11          H  0.5556399  0.6676801  1.3888890    0.00000       Uiso       1.00
       H12          H  0.4982300  0.6519600  1.3888890    0.00000       Uiso       1.00
       H13          H  0.4356100  0.6287400  1.3888890    0.00000       Uiso       1.00
       H14          H  0.6119000  0.4987900  1.3888890    0.00000       Uiso       1.00
       H15          H  0.3648200  0.4422600  1.3888890    0.00000       Uiso       1.00
       C16          C  0.5930900  0.6376000  1.3888890    0.00000       Uiso       1.00
       N17          N  0.6000400  0.5883700  1.3888890    0.00000       Uiso       1.00
       C18          C  0.5607900  0.5768200  1.3888890    0.00000       Uiso       1.00
       C19          C  0.5105299  0.6131700  1.3888890    0.00000       Uiso       1.00
       C20          C  0.4499400  0.5368000  1.3888890    0.00000       Uiso       1.00
       C21          C  0.4867000  0.5501600  1.3888890    0.00000       Uiso       1.00
       C22          C  0.5369500  0.5132500  1.3888890    0.00000       Uiso       1.00
       C23          C  0.4740900  0.5999500  1.3888890    0.00000       Uiso       1.00
       C24          C  0.5733200  0.5271000  1.3888890    0.00000       Uiso       1.00
       O25          O  0.5934200  0.4312800  1.3888890    0.00000       Uiso       1.00
       H26          H  0.4443600  0.3323200  1.3888890    0.00000       Uiso       1.00
       H27          H  0.5017700  0.3480400  1.3888890    0.00000       Uiso       1.00
       H28          H  0.5643900  0.3712600  1.3888890    0.00000       Uiso       1.00
       H29          H  0.3881000  0.5012100  1.3888890    0.00000       Uiso       1.00
       H30          H  0.6351801  0.5577400  1.3888890    0.00000       Uiso       1.00
       C31          C  0.2306900  0.4069100  1.3888890    0.00000       Uiso       1.00
       N32          N  0.1884100  0.3999600  1.3888890    0.00000       Uiso       1.00
       C33          C  0.1376100  0.4392100  1.3888890    0.00000       Uiso       1.00
       C34          C  0.1237000  0.4894700  1.3888890    0.00000       Uiso       1.00
       C35          C  0.9867400  0.5500600  1.3888890    0.00000       Uiso       1.00
       C36          C  0.0368600  0.5133000  1.3888890    0.00000       Uiso       1.00
       C37          C  0.0502000  0.4630500  1.3888890    0.00000       Uiso       1.00
       C38          C  0.0740400  0.5259100  1.3888890    0.00000       Uiso       1.00
       C39          C  0.1004200  0.4266800  1.3888890    0.00000       Uiso       1.00
       O40          O  0.0247000  0.4065800  1.3888890    0.00000       Uiso       1.00
       H41          H  0.7766800  0.5556400  1.3888890    0.00000       Uiso       1.00
       H42          H  0.8498100  0.4982300  1.3888890    0.00000       Uiso       1.00
       H43          H  0.9356500  0.4356100  1.3888890    0.00000       Uiso       1.00
       H44          H  0.8893100  0.6119000  1.3888890    0.00000       Uiso       1.00
       H45          H  0.1929200  0.3648200  1.3888890    0.00000       Uiso       1.00
       C46          C  0.7693101  0.5930900  1.3888890    0.00000       Uiso       1.00
       N47          N  0.8115900  0.6000400  1.3888890    0.00000       Uiso       1.00
       C48          C  0.8623900  0.5607900  1.3888890    0.00000       Uiso       1.00
       C49          C  0.8762999  0.5105300  1.3888890    0.00000       Uiso       1.00
       C50          C  0.0132600  0.4499400  1.3888890    0.00000       Uiso       1.00
       C51          C  0.9631400  0.4867000  1.3888890    0.00000       Uiso       1.00
       C52          C  0.9498000  0.5369500  1.3888890    0.00000       Uiso       1.00
       C53          C  0.9259601  0.4740900  1.3888890    0.00000       Uiso       1.00
       C54          C  0.8995801  0.5733200  1.3888890    0.00000       Uiso       1.00
       O55          O  0.9753000  0.5934200  1.3888890    0.00000       Uiso       1.00
       H56          H  0.2233200  0.4443600  1.3888890    0.00000       Uiso       1.00
       H57          H  0.1501900  0.5017700  1.3888890    0.00000       Uiso       1.00
       H58          H  0.0643500  0.5643900  1.3888890    0.00000       Uiso       1.00
       H59          H  0.1106900  0.3881000  1.3888890    0.00000       Uiso       1.00
       H60          H  0.8070800  0.6351800  1.3888890    0.00000       Uiso       1.00
       C61          C  0.3624000  0.2306900  1.3888890    0.00000       Uiso       1.00
       N62          N  0.4116300  0.1884100  1.3888890    0.00000       Uiso       1.00
       C63          C  0.4231800  0.1376100  1.3888890    0.00000       Uiso       1.00
       C64          C  0.3868300  0.1237000  1.3888890    0.00000       Uiso       1.00
       C65          C  0.4632000  0.9867400  1.3888890    0.00000       Uiso       1.00
       C66          C  0.4498400  0.0368600  1.3888890    0.00000       Uiso       1.00
       C67          C  0.4867500  0.0502000  1.3888890    0.00000       Uiso       1.00
       C68          C  0.4000500  0.0740400  1.3888890    0.00000       Uiso       1.00
       C69          C  0.4729000  0.1004200  1.3888890    0.00000       Uiso       1.00
       O70          O  0.5687200  0.0247000  1.3888890    0.00000       Uiso       1.00
       H71          H  0.6676800  0.7766800  1.3888890    0.00000       Uiso       1.00
       H72          H  0.6519600  0.8498100  1.3888890    0.00000       Uiso       1.00
       H73          H  0.6287401  0.9356500  1.3888890    0.00000       Uiso       1.00
       H74          H  0.4987900  0.8893100  1.3888890    0.00000       Uiso       1.00
       H75          H  0.4422600  0.1929200  1.3888890    0.00000       Uiso       1.00
       C76          C  0.6376000  0.7693100  1.3888890    0.00000       Uiso       1.00
       N77          N  0.5883700  0.8115900  1.3888890    0.00000       Uiso       1.00
       C78          C  0.5768200  0.8623900  1.3888890    0.00000       Uiso       1.00
       C79          C  0.6131700  0.8763000  1.3888890    0.00000       Uiso       1.00
       C80          C  0.5368000  0.0132600  1.3888890    0.00000       Uiso       1.00
       C81          C  0.5501601  0.9631400  1.3888890    0.00000       Uiso       1.00
       C82          C  0.5132500  0.9498000  1.3888890    0.00000       Uiso       1.00
       C83          C  0.5999500  0.9259600  1.3888890    0.00000       Uiso       1.00
       C84          C  0.5271000  0.8995800  1.3888890    0.00000       Uiso       1.00
       O85          O  0.4312800  0.9753001  1.3888890    0.00000       Uiso       1.00
       H86          H  0.3323200  0.2233200  1.3888890    0.00000       Uiso       1.00
       H87          H  0.3480400  0.1501900  1.3888890    0.00000       Uiso       1.00
       H88          H  0.3712600  0.0643500  1.3888890    0.00000       Uiso       1.00
       H89          H  0.5012100  0.1106900  1.3888890    0.00000       Uiso       1.00
       H90          H  0.5577400  0.8070800  1.3888890    0.00000       Uiso       1.00
       C91          C  0.6831700  0.6137100  1.3888890    0.00000       Uiso       1.00
       C92          C  0.6293400  0.6498000  1.3888890    0.00000       Uiso       1.00
       O93          O  0.6976000  0.5698600  1.3888890    0.00000       Uiso       1.00
       C94          C  0.6137100  0.7031200  1.3888890    0.00000       Uiso       1.00
       C95          C  0.6498000  0.7208600  1.3888890    0.00000       Uiso       1.00
       O96          O  0.5698600  0.7325400  1.3888890    0.00000       Uiso       1.00
       C97          C  0.7031201  0.6831700  1.3888890    0.00000       Uiso       1.00
       C98          C  0.7208600  0.6293400  1.3888890    0.00000       Uiso       1.00
       O99          O  0.7325400  0.6976000  1.3888890    0.00000       Uiso       1.00
      C100          C  0.3168300  0.3862900  1.3888890    0.00000       Uiso       1.00
      C101          C  0.3706600  0.3502000  1.3888890    0.00000       Uiso       1.00
      O102          O  0.3024000  0.4301400  1.3888890    0.00000       Uiso       1.00
      C103          C  0.3862900  0.2968800  1.3888890    0.00000       Uiso       1.00
      C104          C  0.3502000  0.2791400  1.3888890    0.00000       Uiso       1.00
      O105          O  0.4301400  0.2674600  1.3888890    0.00000       Uiso       1.00
      C106          C  0.2968800  0.3168300  1.3888890    0.00000       Uiso       1.00
      C107          C  0.2791400  0.3706600  1.3888890    0.00000       Uiso       1.00
      O108          O  0.2674600  0.3024000  1.3888890    0.00000       Uiso       1.00
