data_DA-COF
_audit_creation_date              0000-00-00
_audit_creation_method            'LanYouShi'
_symmetry_space_group_name_H-M    'P1'
_cell_length_a                    30.1473007
_cell_length_b                    30.1473007
_cell_length_c                    3.5558000
_cell_angle_alpha                 90.0000000
_cell_angle_beta                  90.0000000
_cell_angle_gamma                 120.0000000
loop_
_atom_site_label
_atom_site_type_symbol
_atom_site_fract_x
_atom_site_fract_y
_atom_site_fract_z
_atom_site_U_iso_or_equiv
_atom_site_adp_type
_atom_site_occupancy
        C1          C  0.7138180  0.3324330  0.5000060    0.00000       Uiso       1.00
        C2          C  0.7146090  0.3806200  0.5000060    0.00000       Uiso       1.00
        C3          C  0.7632420  0.4268670  0.5000060    0.00000       Uiso       1.00
        C4          C  0.8087640  0.4255850  0.5000060    0.00000       Uiso       1.00
        C5          C  0.8079620  0.3793480  0.5000060    0.00000       Uiso       1.00
        C6          C  0.7617040  0.3332700  0.5000060    0.00000       Uiso       1.00
        C7          C  0.6675670  0.3813850  0.5000060    0.00000       Uiso       1.00
        C8          C  0.6193800  0.3339890  0.5000060    0.00000       Uiso       1.00
        C9          C  0.5731330  0.3363750  0.5000060    0.00000       Uiso       1.00
       C10          C  0.5744160  0.3831790  0.5000060    0.00000       Uiso       1.00
       C11          C  0.6206530  0.4286150  0.5000060    0.00000       Uiso       1.00
       C12          C  0.6667300  0.4284340  0.5000060    0.00000       Uiso       1.00
       C13          C  0.6186160  0.2861820  0.5000060    0.00000       Uiso       1.00
       C14          C  0.6660110  0.2853910  0.5000060    0.00000       Uiso       1.00
       C15          C  0.6636260  0.2367580  0.5000060    0.00000       Uiso       1.00
       C16          C  0.6168210  0.1912360  0.5000060    0.00000       Uiso       1.00
       C17          C  0.5713860  0.1920380  0.5000060    0.00000       Uiso       1.00
       C18          C  0.5715670  0.2382960  0.5000060    0.00000       Uiso       1.00
       C19          C  0.3324330  0.7138180  0.5000060    0.00000       Uiso       1.00
       C20          C  0.3806200  0.7146090  0.5000060    0.00000       Uiso       1.00
       C21          C  0.4268670  0.7632420  0.5000060    0.00000       Uiso       1.00
       C22          C  0.4255850  0.8087639  0.5000060    0.00000       Uiso       1.00
       C23          C  0.3793480  0.8079620  0.5000060    0.00000       Uiso       1.00
       C24          C  0.3332710  0.7617040  0.5000060    0.00000       Uiso       1.00
       C25          C  0.3813850  0.6675670  0.5000060    0.00000       Uiso       1.00
       C26          C  0.3339890  0.6193800  0.5000060    0.00000       Uiso       1.00
       C27          C  0.3363750  0.5731330  0.5000060    0.00000       Uiso       1.00
       C28          C  0.3831800  0.5744160  0.5000060    0.00000       Uiso       1.00
       C29          C  0.4286150  0.6206530  0.5000060    0.00000       Uiso       1.00
       C30          C  0.4284340  0.6667300  0.5000060    0.00000       Uiso       1.00
       C31          C  0.2861820  0.6186160  0.5000060    0.00000       Uiso       1.00
       C32          C  0.2853910  0.6660110  0.5000060    0.00000       Uiso       1.00
       C33          C  0.2367580  0.6636260  0.5000060    0.00000       Uiso       1.00
       C34          C  0.1912360  0.6168209  0.5000060    0.00000       Uiso       1.00
       C35          C  0.1920380  0.5713860  0.5000060    0.00000       Uiso       1.00
       C36          C  0.2382960  0.5715670  0.5000060    0.00000       Uiso       1.00
       O37          O  0.8557420  0.3865540  0.5000060    0.00000       Uiso       1.00
       O38          O  0.6134460  0.4691880  0.5000060    0.00000       Uiso       1.00
       O39          O  0.5308120  0.1442580  0.5000060    0.00000       Uiso       1.00
       O40          O  0.3865540  0.8557420  0.5000060    0.00000       Uiso       1.00
       O41          O  0.4691880  0.6134461  0.5000060    0.00000       Uiso       1.00
       O42          O  0.1442580  0.5308120  0.5000060    0.00000       Uiso       1.00
       B43          B  0.8883130  0.4414120  0.5000060    0.00000       Uiso       1.00
       B44          B  0.5585880  0.4469010  0.5000060    0.00000       Uiso       1.00
       B45          B  0.5531000  0.1116880  0.5000060    0.00000       Uiso       1.00
       B46          B  0.4414120  0.8883130  0.5000060    0.00000       Uiso       1.00
       B47          B  0.4469010  0.5585880  0.5000060    0.00000       Uiso       1.00
       B48          B  0.1116880  0.5531000  0.5000060    0.00000       Uiso       1.00
       O49          O  0.8571300  0.4653060  0.5000060    0.00000       Uiso       1.00
       O50          O  0.5346940  0.3918240  0.5000060    0.00000       Uiso       1.00
       O51          O  0.6081770  0.1428700  0.5000060    0.00000       Uiso       1.00
       O52          O  0.4653060  0.8571300  0.5000060    0.00000       Uiso       1.00
       O53          O  0.3918240  0.5346940  0.5000060    0.00000       Uiso       1.00
       O54          O  0.1428700  0.6081770  0.5000060    0.00000       Uiso       1.00
       H55          H  0.7679570  0.4626140  0.5000060    0.00000       Uiso       1.00
       H56          H  0.5373860  0.3053420  0.5000060    0.00000       Uiso       1.00
       H57          H  0.6946580  0.2320440  0.5000060    0.00000       Uiso       1.00
       H58          H  0.7653790  0.3016140  0.5000060    0.00000       Uiso       1.00
       H59          H  0.6983860  0.4637650  0.5000060    0.00000       Uiso       1.00
       H60          H  0.5362350  0.2346210  0.5000060    0.00000       Uiso       1.00
       H61          H  0.4626140  0.7679570  0.5000060    0.00000       Uiso       1.00
       H62          H  0.3053420  0.5373860  0.5000060    0.00000       Uiso       1.00
       H63          H  0.2320440  0.6946580  0.5000060    0.00000       Uiso       1.00
       H64          H  0.3016140  0.7653790  0.5000060    0.00000       Uiso       1.00
       H65          H  0.4637650  0.6983861  0.5000060    0.00000       Uiso       1.00
       H66          H  0.2346210  0.5362350  0.5000060    0.00000       Uiso       1.00
       C67          C  0.0547000  0.5246860  0.5000060    0.00000       Uiso       1.00
       C68          C  0.4753140  0.5300140  0.5000060    0.00000       Uiso       1.00
       C69          C  0.4699860  0.9453010  0.5000060    0.00000       Uiso       1.00
       C70          C  0.5246860  0.0547000  0.5000060    0.00000       Uiso       1.00
       C71          C  0.5300140  0.4753140  0.5000060    0.00000       Uiso       1.00
       C72          C  0.9453010  0.4699860  0.5000060    0.00000       Uiso       1.00
       C73          C  0.0267430  0.4706940  0.5000060    0.00000       Uiso       1.00
       C74          C  0.5293060  0.5560500  0.5000060    0.00000       Uiso       1.00
       C75          C  0.4439510  0.9732571  0.5000060    0.00000       Uiso       1.00
       C76          C  0.4706940  0.0267430  0.5000060    0.00000       Uiso       1.00
       C77          C  0.5560500  0.5293060  0.5000060    0.00000       Uiso       1.00
       C78          C  0.9732570  0.4439510  0.5000060    0.00000       Uiso       1.00
       C79          C  0.9729960  0.5242300  0.5000060    0.00000       Uiso       1.00
       C80          C  0.4757700  0.4487660  0.5000060    0.00000       Uiso       1.00
       C81          C  0.5512350  0.0270040  0.5000060    0.00000       Uiso       1.00
       C82          C  0.5242300  0.9729960  0.5000060    0.00000       Uiso       1.00
       C83          C  0.4487660  0.4757700  0.5000060    0.00000       Uiso       1.00
       C84          C  0.0270040  0.5512350  0.5000060    0.00000       Uiso       1.00
       N85          N  0.5612050  0.6067860  0.5000060    0.00000       Uiso       1.00
       N86          N  0.3932150  0.9544200  0.5000060    0.00000       Uiso       1.00
       N87          N  0.0455810  0.4387960  0.5000060    0.00000       Uiso       1.00
       N88          N  0.6067860  0.5612050  0.5000060    0.00000       Uiso       1.00
       N89          N  0.9544200  0.3932150  0.5000060    0.00000       Uiso       1.00
       N90          N  0.4387960  0.0455810  0.5000060    0.00000       Uiso       1.00
       S91          S  0.6235570  0.6235569  0.5000060    0.00000       Uiso       1.00
       S92          S  0.3764430  0.0000000  0.5000060    0.00000       Uiso       1.00
       S93          S -0.0000000  0.3764430  0.5000060    0.00000       Uiso       1.00
       H94          H  0.0461830  0.5906090  0.5000060    0.00000       Uiso       1.00
       H95          H  0.4093920  0.4555740  0.5000060    0.00000       Uiso       1.00
       H96          H  0.5444260  0.9538180  0.5000060    0.00000       Uiso       1.00
       H97          H  0.5906090  0.0461830  0.5000060    0.00000       Uiso       1.00
       H98          H  0.4555740  0.4093920  0.5000060    0.00000       Uiso       1.00
       H99          H  0.9538180  0.5444260  0.5000060    0.00000       Uiso       1.00
