data_4PE-2P
_audit_creation_date              2016-12-13
_audit_creation_method            'Materials Studio'
_symmetry_space_group_name_H-M    'P1'
_symmetry_Int_Tables_number       1
_symmetry_cell_setting            triclinic
loop_
_symmetry_equiv_pos_as_xyz
  x,y,z
_cell_length_a                    45.8218
_cell_length_b                    45.8218
_cell_length_c                    4.6300
_cell_angle_alpha                 90.0000
_cell_angle_beta                  90.0000
_cell_angle_gamma                 120.0000
loop_
_atom_site_label
_atom_site_type_symbol
_atom_site_fract_x
_atom_site_fract_y
_atom_site_fract_z
_atom_site_U_iso_or_equiv
_atom_site_adp_type
_atom_site_occupancy
C1     C     0.48521   0.48505   0.33715   0.00000  Uiso   1.00
C2     C     0.45335   0.48445   0.35500   0.00000  Uiso   1.00
C3     C     0.42769   0.46467   0.16316   0.00000  Uiso   1.00
C4     C     0.39915   0.46706   0.15615   0.00000  Uiso   1.00
C5     C     0.39606   0.48933   0.34103   0.00000  Uiso   1.00
C6     C     0.42109   0.50817   0.54300   0.00000  Uiso   1.00
C7     C     0.44924   0.50514   0.55084   0.00000  Uiso   1.00
H1     H     0.46992   0.51998   0.69898   0.00000  Uiso   1.00
C8     C     0.48231   0.45204   0.32092   0.00000  Uiso   1.00
C9     C     0.45519   0.42493   0.45709   0.00000  Uiso   1.00
C10    C     0.45143   0.39338   0.45176   0.00000  Uiso   1.00
C11    C     0.47530   0.38829   0.31200   0.00000  Uiso   1.00
C12    C     0.50166   0.41477   0.16269   0.00000  Uiso   1.00
C13    C     0.50499   0.44603   0.16743   0.00000  Uiso   1.00
N1     N     0.36849   0.49322   0.32582   0.00000  Uiso   1.00
C14    C     0.33950   0.46724   0.30050   0.00000  Uiso   1.00
C15    C     0.31043   0.47090   0.27920   0.00000  Uiso   1.00
C16    C     0.28066   0.44644   0.40340   0.00000  Uiso   1.00
C17    C     0.25437   0.45239   0.43515   0.00000  Uiso   1.00
C18    C     0.25751   0.48218   0.33035   0.00000  Uiso   1.00
C19    C     0.28714   0.50620   0.19924   0.00000  Uiso   1.00
C20    C     0.31356   0.50057   0.17094   0.00000  Uiso   1.00
N2     N     0.47200   0.35705   0.31889   0.00000  Uiso   1.00
C21    C     0.49815   0.35426   0.34590   0.00000  Uiso   1.00
C22    C     0.49535   0.32178   0.33491   0.00000  Uiso   1.00
C23    C     0.52083   0.31690   0.44309   0.00000  Uiso   1.00
C24    C     0.51682   0.28515   0.44233   0.00000  Uiso   1.00
C25    C     0.48725   0.25838   0.33663   0.00000  Uiso   1.00
C26    C     0.46179   0.26334   0.22826   0.00000  Uiso   1.00
C27    C     0.46596   0.29494   0.22484   0.00000  Uiso   1.00
H2     H     0.43128   0.44846   0.01124   0.00000  Uiso   1.00
H3     H     0.37963   0.45345  -0.00609   0.00000  Uiso   1.00
H4     H     0.41739   0.52476   0.68887   0.00000  Uiso   1.00
H5     H     0.43705   0.42933   0.57361   0.00000  Uiso   1.00
H6     H     0.43088   0.37226   0.56419   0.00000  Uiso   1.00
H7     H     0.51888   0.40979   0.03771   0.00000  Uiso   1.00
H8     H     0.52590   0.46676   0.05485   0.00000  Uiso   1.00
H9     H     0.33591   0.44164   0.32268   0.00000  Uiso   1.00
H10    H     0.27941   0.42384   0.49309   0.00000  Uiso   1.00
H11    H     0.23121   0.43439   0.54447   0.00000  Uiso   1.00
H12    H     0.28823   0.52871   0.10931   0.00000  Uiso   1.00
H13    H     0.33725   0.51868   0.06936   0.00000  Uiso   1.00
H14    H     0.52314   0.37636   0.39103   0.00000  Uiso   1.00
H15    H     0.54333   0.33819   0.53486   0.00000  Uiso   1.00
H16    H     0.53608   0.28037   0.53011   0.00000  Uiso   1.00
H17    H     0.43899   0.24176   0.14486   0.00000  Uiso   1.00
H18    H     0.44693   0.30037   0.14256   0.00000  Uiso   1.00
C28    C     0.51495   0.00016   0.33715   0.00000  Uiso   1.00
C29    C     0.51555   0.96890   0.35500   0.00000  Uiso   1.00
C30    C     0.53533   0.96302   0.16316   0.00000  Uiso   1.00
C31    C     0.53294   0.93209   0.15615   0.00000  Uiso   1.00
C32    C     0.51067   0.90673   0.34103   0.00000  Uiso   1.00
C33    C     0.49183   0.91292   0.54300   0.00000  Uiso   1.00
C34    C     0.49486   0.94410   0.55084   0.00000  Uiso   1.00
H19    H     0.48002   0.94994   0.69898   0.00000  Uiso   1.00
C35    C     0.54796   0.03027   0.32092   0.00000  Uiso   1.00
C36    C     0.57507   0.03026   0.45709   0.00000  Uiso   1.00
C37    C     0.60662   0.05805   0.45176   0.00000  Uiso   1.00
C38    C     0.61171   0.08701   0.31200   0.00000  Uiso   1.00
C39    C     0.58523   0.08689   0.16269   0.00000  Uiso   1.00
C40    C     0.55397   0.05896   0.16743   0.00000  Uiso   1.00
N3     N     0.50678   0.87527   0.32582   0.00000  Uiso   1.00
C41    C     0.53276   0.87226   0.30050   0.00000  Uiso   1.00
C42    C     0.52910   0.83953   0.27920   0.00000  Uiso   1.00
C43    C     0.55356   0.83422   0.40340   0.00000  Uiso   1.00
C44    C     0.54761   0.80198   0.43515   0.00000  Uiso   1.00
C45    C     0.51782   0.77533   0.33035   0.00000  Uiso   1.00
C46    C     0.49380   0.78094   0.19924   0.00000  Uiso   1.00
C47    C     0.49943   0.81299   0.17094   0.00000  Uiso   1.00
N4     N     0.64295   0.11495   0.31889   0.00000  Uiso   1.00
C48    C     0.64574   0.14389   0.34590   0.00000  Uiso   1.00
C49    C     0.67822   0.17357   0.33491   0.00000  Uiso   1.00
C50    C     0.68310   0.20393   0.44309   0.00000  Uiso   1.00
C51    C     0.71485   0.23167   0.44233   0.00000  Uiso   1.00
C52    C     0.74162   0.22887   0.33663   0.00000  Uiso   1.00
C53    C     0.73666   0.19845   0.22826   0.00000  Uiso   1.00
C54    C     0.70506   0.17102   0.22484   0.00000  Uiso   1.00
H20    H     0.55154   0.98282   0.01124   0.00000  Uiso   1.00
H21    H     0.54655   0.92618  -0.00609   0.00000  Uiso   1.00
H22    H     0.47524   0.89263   0.68887   0.00000  Uiso   1.00
H23    H     0.57067   0.00772   0.57361   0.00000  Uiso   1.00
H24    H     0.62774   0.05862   0.56419   0.00000  Uiso   1.00
H25    H     0.59021   0.10909   0.03771   0.00000  Uiso   1.00
H26    H     0.53324   0.05914   0.05485   0.00000  Uiso   1.00
H27    H     0.55836   0.89427   0.32268   0.00000  Uiso   1.00
H28    H     0.57616   0.85557   0.49309   0.00000  Uiso   1.00
H29    H     0.56561   0.79682   0.54447   0.00000  Uiso   1.00
H30    H     0.47129   0.75952   0.10931   0.00000  Uiso   1.00
H31    H     0.48132   0.81857   0.06936   0.00000  Uiso   1.00
H32    H     0.62364   0.14678   0.39103   0.00000  Uiso   1.00
H33    H     0.66181   0.20514   0.53486   0.00000  Uiso   1.00
H34    H     0.71963   0.25571   0.53011   0.00000  Uiso   1.00
H35    H     0.75824   0.19723   0.14486   0.00000  Uiso   1.00
H36    H     0.69963   0.14656   0.14256   0.00000  Uiso   1.00
C55    C     0.99984   0.51479   0.33715   0.00000  Uiso   1.00
C56    C     0.03110   0.54665   0.35500   0.00000  Uiso   1.00
C57    C     0.03698   0.57231   0.16316   0.00000  Uiso   1.00
C58    C     0.06791   0.60085   0.15615   0.00000  Uiso   1.00
C59    C     0.09327   0.60394   0.34103   0.00000  Uiso   1.00
C60    C     0.08708   0.57891   0.54300   0.00000  Uiso   1.00
C61    C     0.05590   0.55076   0.55084   0.00000  Uiso   1.00
H37    H     0.05006   0.53008   0.69898   0.00000  Uiso   1.00
C62    C     0.96973   0.51769   0.32092   0.00000  Uiso   1.00
C63    C     0.96974   0.54481   0.45709   0.00000  Uiso   1.00
C64    C     0.94195   0.54857   0.45176   0.00000  Uiso   1.00
C65    C     0.91299   0.52470   0.31200   0.00000  Uiso   1.00
C66    C     0.91311   0.49834   0.16269   0.00000  Uiso   1.00
C67    C     0.94104   0.49501   0.16743   0.00000  Uiso   1.00
N5     N     0.12473   0.63151   0.32582   0.00000  Uiso   1.00
C68    C     0.12774   0.66050   0.30050   0.00000  Uiso   1.00
C69    C     0.16047   0.68957   0.27920   0.00000  Uiso   1.00
C70    C     0.16578   0.71934   0.40340   0.00000  Uiso   1.00
C71    C     0.19802   0.74563   0.43515   0.00000  Uiso   1.00
C72    C     0.22467   0.74249   0.33035   0.00000  Uiso   1.00
C73    C     0.21906   0.71286   0.19924   0.00000  Uiso   1.00
C74    C     0.18701   0.68644   0.17094   0.00000  Uiso   1.00
N6     N     0.88505   0.52800   0.31889   0.00000  Uiso   1.00
C75    C     0.85611   0.50185   0.34590   0.00000  Uiso   1.00
C76    C     0.82643   0.50465   0.33491   0.00000  Uiso   1.00
C77    C     0.79607   0.47917   0.44309   0.00000  Uiso   1.00
C78    C     0.76833   0.48318   0.44233   0.00000  Uiso   1.00
C79    C     0.77113   0.51275   0.33663   0.00000  Uiso   1.00
C80    C     0.80155   0.53821   0.22826   0.00000  Uiso   1.00
C81    C     0.82898   0.53404   0.22484   0.00000  Uiso   1.00
H38    H     0.01718   0.56872   0.01124   0.00000  Uiso   1.00
H39    H     0.07382   0.62037  -0.00609   0.00000  Uiso   1.00
H40    H     0.10737   0.58261   0.68887   0.00000  Uiso   1.00
H41    H     0.99228   0.56295   0.57361   0.00000  Uiso   1.00
H42    H     0.94138   0.56912   0.56419   0.00000  Uiso   1.00
H43    H     0.89091   0.48112   0.03771   0.00000  Uiso   1.00
H44    H     0.94086   0.47410   0.05485   0.00000  Uiso   1.00
H45    H     0.10573   0.66409   0.32268   0.00000  Uiso   1.00
H46    H     0.14443   0.72059   0.49309   0.00000  Uiso   1.00
H47    H     0.20318   0.76879   0.54447   0.00000  Uiso   1.00
H48    H     0.24048   0.71177   0.10931   0.00000  Uiso   1.00
H49    H     0.18143   0.66275   0.06936   0.00000  Uiso   1.00
H50    H     0.85322   0.47686   0.39103   0.00000  Uiso   1.00
H51    H     0.79486   0.45667   0.53486   0.00000  Uiso   1.00
H52    H     0.74429   0.46392   0.53011   0.00000  Uiso   1.00
H53    H     0.80277   0.56101   0.14486   0.00000  Uiso   1.00
H54    H     0.85344   0.55307   0.14256   0.00000  Uiso   1.00
C82    C     0.51479   0.51495   0.33715   0.00000  Uiso   1.00
C83    C     0.54665   0.51555   0.35500   0.00000  Uiso   1.00
C84    C     0.57231   0.53533   0.16316   0.00000  Uiso   1.00
C85    C     0.60085   0.53294   0.15615   0.00000  Uiso   1.00
C86    C     0.60394   0.51067   0.34103   0.00000  Uiso   1.00
C87    C     0.57891   0.49183   0.54300   0.00000  Uiso   1.00
C88    C     0.55076   0.49486   0.55084   0.00000  Uiso   1.00
H55    H     0.53008   0.48002   0.69898   0.00000  Uiso   1.00
C89    C     0.51769   0.54796   0.32092   0.00000  Uiso   1.00
C90    C     0.54481   0.57507   0.45709   0.00000  Uiso   1.00
C91    C     0.54857   0.60662   0.45176   0.00000  Uiso   1.00
C92    C     0.52470   0.61171   0.31200   0.00000  Uiso   1.00
C93    C     0.49834   0.58523   0.16269   0.00000  Uiso   1.00
C94    C     0.49501   0.55397   0.16743   0.00000  Uiso   1.00
N7     N     0.63151   0.50678   0.32582   0.00000  Uiso   1.00
C95    C     0.66050   0.53276   0.30050   0.00000  Uiso   1.00
C96    C     0.68957   0.52910   0.27920   0.00000  Uiso   1.00
C97    C     0.71934   0.55356   0.40340   0.00000  Uiso   1.00
C98    C     0.74563   0.54761   0.43515   0.00000  Uiso   1.00
C99    C     0.74249   0.51782   0.33035   0.00000  Uiso   1.00
C100   C     0.71286   0.49380   0.19924   0.00000  Uiso   1.00
C101   C     0.68644   0.49943   0.17094   0.00000  Uiso   1.00
N8     N     0.52800   0.64295   0.31889   0.00000  Uiso   1.00
C102   C     0.50185   0.64574   0.34590   0.00000  Uiso   1.00
C103   C     0.50465   0.67822   0.33491   0.00000  Uiso   1.00
C104   C     0.47917   0.68310   0.44309   0.00000  Uiso   1.00
C105   C     0.48318   0.71485   0.44233   0.00000  Uiso   1.00
C106   C     0.51275   0.74162   0.33663   0.00000  Uiso   1.00
C107   C     0.53821   0.73666   0.22826   0.00000  Uiso   1.00
C108   C     0.53404   0.70506   0.22484   0.00000  Uiso   1.00
H56    H     0.56872   0.55154   0.01124   0.00000  Uiso   1.00
H57    H     0.62037   0.54655  -0.00609   0.00000  Uiso   1.00
H58    H     0.58261   0.47524   0.68887   0.00000  Uiso   1.00
H59    H     0.56295   0.57067   0.57361   0.00000  Uiso   1.00
H60    H     0.56912   0.62774   0.56419   0.00000  Uiso   1.00
H61    H     0.48112   0.59021   0.03771   0.00000  Uiso   1.00
H62    H     0.47410   0.53324   0.05485   0.00000  Uiso   1.00
H63    H     0.66409   0.55836   0.32268   0.00000  Uiso   1.00
H64    H     0.72059   0.57616   0.49309   0.00000  Uiso   1.00
H65    H     0.76879   0.56561   0.54447   0.00000  Uiso   1.00
H66    H     0.71177   0.47129   0.10931   0.00000  Uiso   1.00
H67    H     0.66275   0.48132   0.06936   0.00000  Uiso   1.00
H68    H     0.47686   0.62364   0.39103   0.00000  Uiso   1.00
H69    H     0.45667   0.66181   0.53486   0.00000  Uiso   1.00
H70    H     0.46392   0.71963   0.53011   0.00000  Uiso   1.00
H71    H     0.56101   0.75824   0.14486   0.00000  Uiso   1.00
H72    H     0.55307   0.69963   0.14256   0.00000  Uiso   1.00
C109   C     0.48505   0.99984   0.33715   0.00000  Uiso   1.00
C110   C     0.48445   0.03110   0.35500   0.00000  Uiso   1.00
C111   C     0.46467   0.03698   0.16316   0.00000  Uiso   1.00
C112   C     0.46706   0.06791   0.15615   0.00000  Uiso   1.00
C113   C     0.48933   0.09327   0.34103   0.00000  Uiso   1.00
C114   C     0.50817   0.08708   0.54300   0.00000  Uiso   1.00
C115   C     0.50514   0.05590   0.55084   0.00000  Uiso   1.00
H73    H     0.51998   0.05006   0.69898   0.00000  Uiso   1.00
C116   C     0.45204   0.96973   0.32092   0.00000  Uiso   1.00
C117   C     0.42493   0.96974   0.45709   0.00000  Uiso   1.00
C118   C     0.39338   0.94195   0.45176   0.00000  Uiso   1.00
C119   C     0.38829   0.91299   0.31200   0.00000  Uiso   1.00
C120   C     0.41477   0.91311   0.16269   0.00000  Uiso   1.00
C121   C     0.44603   0.94104   0.16743   0.00000  Uiso   1.00
N9     N     0.49322   0.12473   0.32582   0.00000  Uiso   1.00
C122   C     0.46724   0.12774   0.30050   0.00000  Uiso   1.00
C123   C     0.47090   0.16047   0.27920   0.00000  Uiso   1.00
C124   C     0.44644   0.16578   0.40340   0.00000  Uiso   1.00
C125   C     0.45239   0.19802   0.43515   0.00000  Uiso   1.00
C126   C     0.48218   0.22467   0.33035   0.00000  Uiso   1.00
C127   C     0.50620   0.21906   0.19924   0.00000  Uiso   1.00
C128   C     0.50057   0.18701   0.17094   0.00000  Uiso   1.00
N10    N     0.35705   0.88505   0.31889   0.00000  Uiso   1.00
C129   C     0.35426   0.85611   0.34590   0.00000  Uiso   1.00
C130   C     0.32178   0.82643   0.33491   0.00000  Uiso   1.00
C131   C     0.31690   0.79607   0.44309   0.00000  Uiso   1.00
C132   C     0.28515   0.76833   0.44233   0.00000  Uiso   1.00
C133   C     0.25838   0.77113   0.33663   0.00000  Uiso   1.00
C134   C     0.26334   0.80155   0.22826   0.00000  Uiso   1.00
C135   C     0.29494   0.82898   0.22484   0.00000  Uiso   1.00
H74    H     0.44846   0.01718   0.01124   0.00000  Uiso   1.00
H75    H     0.45345   0.07382  -0.00609   0.00000  Uiso   1.00
H76    H     0.52476   0.10737   0.68887   0.00000  Uiso   1.00
H77    H     0.42933   0.99228   0.57361   0.00000  Uiso   1.00
H78    H     0.37226   0.94138   0.56419   0.00000  Uiso   1.00
H79    H     0.40979   0.89091   0.03771   0.00000  Uiso   1.00
H80    H     0.46676   0.94086   0.05485   0.00000  Uiso   1.00
H81    H     0.44164   0.10573   0.32268   0.00000  Uiso   1.00
H82    H     0.42384   0.14443   0.49309   0.00000  Uiso   1.00
H83    H     0.43439   0.20318   0.54447   0.00000  Uiso   1.00
H84    H     0.52871   0.24048   0.10931   0.00000  Uiso   1.00
H85    H     0.51868   0.18143   0.06936   0.00000  Uiso   1.00
H86    H     0.37636   0.85322   0.39103   0.00000  Uiso   1.00
H87    H     0.33819   0.79486   0.53486   0.00000  Uiso   1.00
H88    H     0.28037   0.74429   0.53011   0.00000  Uiso   1.00
H89    H     0.24176   0.80277   0.14486   0.00000  Uiso   1.00
H90    H     0.30037   0.85344   0.14256   0.00000  Uiso   1.00
C136   C     0.00016   0.48521   0.33715   0.00000  Uiso   1.00
C137   C     0.96890   0.45335   0.35500   0.00000  Uiso   1.00
C138   C     0.96302   0.42769   0.16316   0.00000  Uiso   1.00
C139   C     0.93209   0.39915   0.15615   0.00000  Uiso   1.00
C140   C     0.90673   0.39606   0.34103   0.00000  Uiso   1.00
C141   C     0.91292   0.42109   0.54300   0.00000  Uiso   1.00
C142   C     0.94410   0.44924   0.55084   0.00000  Uiso   1.00
H91    H     0.94994   0.46992   0.69898   0.00000  Uiso   1.00
C143   C     0.03027   0.48231   0.32092   0.00000  Uiso   1.00
C144   C     0.03026   0.45519   0.45709   0.00000  Uiso   1.00
C145   C     0.05805   0.45143   0.45176   0.00000  Uiso   1.00
C146   C     0.08701   0.47530   0.31200   0.00000  Uiso   1.00
C147   C     0.08689   0.50166   0.16269   0.00000  Uiso   1.00
C148   C     0.05896   0.50499   0.16743   0.00000  Uiso   1.00
N11    N     0.87527   0.36849   0.32582   0.00000  Uiso   1.00
C149   C     0.87226   0.33950   0.30050   0.00000  Uiso   1.00
C150   C     0.83953   0.31043   0.27920   0.00000  Uiso   1.00
C151   C     0.83422   0.28066   0.40340   0.00000  Uiso   1.00
C152   C     0.80198   0.25437   0.43515   0.00000  Uiso   1.00
C153   C     0.77533   0.25751   0.33035   0.00000  Uiso   1.00
C154   C     0.78094   0.28714   0.19924   0.00000  Uiso   1.00
C155   C     0.81299   0.31356   0.17094   0.00000  Uiso   1.00
N12    N     0.11495   0.47200   0.31889   0.00000  Uiso   1.00
C156   C     0.14389   0.49815   0.34590   0.00000  Uiso   1.00
C157   C     0.17357   0.49535   0.33491   0.00000  Uiso   1.00
C158   C     0.20393   0.52083   0.44309   0.00000  Uiso   1.00
C159   C     0.23167   0.51682   0.44233   0.00000  Uiso   1.00
C160   C     0.22887   0.48725   0.33663   0.00000  Uiso   1.00
C161   C     0.19845   0.46179   0.22826   0.00000  Uiso   1.00
C162   C     0.17102   0.46596   0.22484   0.00000  Uiso   1.00
H92    H     0.98282   0.43128   0.01124   0.00000  Uiso   1.00
H93    H     0.92618   0.37963  -0.00609   0.00000  Uiso   1.00
H94    H     0.89263   0.41739   0.68887   0.00000  Uiso   1.00
H95    H     0.00772   0.43705   0.57361   0.00000  Uiso   1.00
H96    H     0.05862   0.43088   0.56419   0.00000  Uiso   1.00
H97    H     0.10909   0.51888   0.03771   0.00000  Uiso   1.00
H98    H     0.05914   0.52590   0.05485   0.00000  Uiso   1.00
H99    H     0.89427   0.33591   0.32268   0.00000  Uiso   1.00
H100   H     0.85557   0.27941   0.49309   0.00000  Uiso   1.00
H101   H     0.79682   0.23121   0.54447   0.00000  Uiso   1.00
H102   H     0.75952   0.28823   0.10931   0.00000  Uiso   1.00
H103   H     0.81857   0.33725   0.06936   0.00000  Uiso   1.00
H104   H     0.14678   0.52314   0.39103   0.00000  Uiso   1.00
H105   H     0.20514   0.54333   0.53486   0.00000  Uiso   1.00
H106   H     0.25571   0.53608   0.53011   0.00000  Uiso   1.00
H107   H     0.19723   0.43899   0.14486   0.00000  Uiso   1.00
H108   H     0.14656   0.44693   0.14256   0.00000  Uiso   1.00
loop_
_geom_bond_atom_site_label_1
_geom_bond_atom_site_label_2
_geom_bond_distance
_geom_bond_site_symmetry_2
_ccdc_geom_bond_type
C1     C8      1.453   .     S
C1     C2      1.449   .     S
C1     C82     1.363   .     S
C2     C3      1.388   .     S
C2     C7      1.391   .     S
C3     H2      1.093   .     S
C3     C4      1.366   .     S
C4     C5      1.392   .     S
C4     H3      1.093   .     S
C5     N1      1.363   .     S
C5     C6      1.395   .     S
C6     H4      1.092   .     S
C6     C7      1.365   .     S
C7     H1      1.089   .     S
C8     C13     1.395   .     S
C8     C9      1.393   .     S
C9     H5      1.091   .     S
C9     C10     1.368   .     S
C10    H6      1.088   .     S
C10    C11     1.387   .     S
C11    N2      1.363   .     S
C11    C12     1.394   .     S
C12    C13     1.363   .     S
C12    H7      1.091   .     S
C13    H8      1.087   .     S
N1     C14     1.270   .     S
C14    C15     1.427   .     S
C14    H9      1.105   .     S
C15    C20     1.387   .     S
C15    C16     1.385   .     S
C16    C17     1.370   .     S
C16    H10     1.090   .     S
C17    H11     1.090   .     S
C17    C18     1.387   .     S
C18    C160    1.443   .     S
C18    C19     1.389   .     S
C19    H12     1.090   .     S
C19    C20     1.364   .     S
C20    H13     1.090   .     S
N2     C21     1.273   .     S
C21    C22     1.429   .     S
C21    H14     1.105   .     S
C22    C27     1.389   .     S
C22    C23     1.387   .     S
C23    H15     1.091   .     S
C23    C24     1.372   .     S
C24    H16     1.089   .     S
C24    C25     1.385   .     S
C25    C126    1.443   .     S
C25    C26     1.389   .     S
C26    H17     1.089   .     S
C26    C27     1.363   .     S
C27    H18     1.088   .     S
C28    C35     1.453   .     S
C29    C30     1.388   .     S
C29    C34     1.391   .     S
C30    H20     1.093   .     S
C30    C31     1.366   .     S
C31    C32     1.392   .     S
C31    H21     1.093   .     S
C32    N3      1.363   .     S
C32    C33     1.395   .     S
C33    H22     1.092   .     S
C33    C34     1.365   .     S
C34    H19     1.089   .     S
C35    C40     1.395   .     S
C35    C36     1.393   .     S
C36    H23     1.091   .     S
C36    C37     1.368   .     S
C37    H24     1.088   .     S
C37    C38     1.387   .     S
C38    C39     1.394   .     S
C38    N4      1.363   .     S
C39    C40     1.363   .     S
C39    H25     1.091   .     S
C40    H26     1.087   .     S
N3     C41     1.270   .     S
C41    H27     1.105   .     S
C41    C42     1.427   .     S
C42    C47     1.387   .     S
C42    C43     1.385   .     S
C43    H28     1.090   .     S
C43    C44     1.370   .     S
C44    H29     1.090   .     S
C44    C45     1.387   .     S
C45    C46     1.389   .     S
C45    C106    1.443   .     S
C46    H30     1.090   .     S
C46    C47     1.364   .     S
C47    H31     1.090   .     S
N4     C48     1.273   .     S
C48    C49     1.429   .     S
C48    H32     1.105   .     S
C49    C54     1.389   .     S
C49    C50     1.387   .     S
C50    H33     1.091   .     S
C50    C51     1.372   .     S
C51    H34     1.089   .     S
C51    C52     1.385   .     S
C52    C153    1.443   .     S
C52    C53     1.389   .     S
C53    H35     1.089   .     S
C53    C54     1.363   .     S
C54    H36     1.088   .     S
C55    C62     1.453   .     S
C56    C57     1.388   .     S
C56    C61     1.391   .     S
C57    H38     1.093   .     S
C57    C58     1.366   .     S
C58    C59     1.392   .     S
C58    H39     1.093   .     S
C59    N5      1.363   .     S
C59    C60     1.395   .     S
C60    C61     1.365   .     S
C60    H40     1.092   .     S
C61    H37     1.089   .     S
C62    C67     1.395   .     S
C62    C63     1.393   .     S
C63    H41     1.091   .     S
C63    C64     1.368   .     S
C64    H42     1.088   .     S
C64    C65     1.387   .     S
C65    N6      1.363   .     S
C65    C66     1.394   .     S
C66    C67     1.363   .     S
C66    H43     1.091   .     S
C67    H44     1.087   .     S
N5     C68     1.270   .     S
C68    H45     1.105   .     S
C68    C69     1.427   .     S
C69    C74     1.387   .     S
C69    C70     1.385   .     S
C70    H46     1.090   .     S
C70    C71     1.370   .     S
C71    H47     1.090   .     S
C71    C72     1.387   .     S
C72    C133    1.443   .     S
C72    C73     1.389   .     S
C73    C74     1.364   .     S
C73    H48     1.090   .     S
C74    H49     1.090   .     S
N6     C75     1.273   .     S
C75    C76     1.429   .     S
C75    H50     1.105   .     S
C76    C81     1.389   .     S
C76    C77     1.387   .     S
C77    H51     1.091   .     S
C77    C78     1.372   .     S
C78    H52     1.089   .     S
C78    C79     1.385   .     S
C79    C99     1.443   .     S
C79    C80     1.389   .     S
C80    H53     1.089   .     S
C80    C81     1.363   .     S
C81    H54     1.088   .     S
C82    C83     1.449   .     S
C82    C89     1.453   .     S
C83    C84     1.388   .     S
C83    C88     1.391   .     S
C84    C85     1.366   .     S
C84    H56     1.093   .     S
C85    C86     1.392   .     S
C85    H57     1.093   .     S
C86    N7      1.363   .     S
C86    C87     1.395   .     S
C87    C88     1.365   .     S
C87    H58     1.092   .     S
C88    H55     1.089   .     S
C89    C94     1.395   .     S
C89    C90     1.393   .     S
C90    H59     1.091   .     S
C90    C91     1.368   .     S
C91    H60     1.088   .     S
C91    C92     1.387   .     S
C92    C93     1.394   .     S
C92    N8      1.363   .     S
C93    H61     1.091   .     S
C93    C94     1.363   .     S
C94    H62     1.087   .     S
N7     C95     1.270   .     S
C95    C96     1.427   .     S
C95    H63     1.105   .     S
C96    C101    1.387   .     S
C96    C97     1.385   .     S
C97    H64     1.090   .     S
C97    C98     1.370   .     S
C98    H65     1.090   .     S
C98    C99     1.387   .     S
C99    C100    1.389   .     S
C100   C101    1.364   .     S
C100   H66     1.090   .     S
C101   H67     1.090   .     S
N8     C102    1.273   .     S
C102   C103    1.429   .     S
C102   H68     1.105   .     S
C103   C108    1.389   .     S
C103   C104    1.387   .     S
C104   C105    1.372   .     S
C104   H69     1.091   .     S
C105   H70     1.089   .     S
C105   C106    1.385   .     S
C106   C107    1.389   .     S
C107   H71     1.089   .     S
C107   C108    1.363   .     S
C108   H72     1.088   .     S
C109   C116    1.453   .     S
C110   C111    1.388   .     S
C110   C115    1.391   .     S
C111   H74     1.093   .     S
C111   C112    1.366   .     S
C112   C113    1.392   .     S
C112   H75     1.093   .     S
C113   N9      1.363   .     S
C113   C114    1.395   .     S
C114   C115    1.365   .     S
C114   H76     1.092   .     S
C115   H73     1.089   .     S
C116   C121    1.395   .     S
C116   C117    1.393   .     S
C117   C118    1.368   .     S
C117   H77     1.091   .     S
C118   H78     1.088   .     S
C118   C119    1.387   .     S
C119   C120    1.394   .     S
C119   N10     1.363   .     S
C120   C121    1.363   .     S
C120   H79     1.091   .     S
C121   H80     1.087   .     S
N9     C122    1.270   .     S
C122   H81     1.105   .     S
C122   C123    1.427   .     S
C123   C128    1.388   .     S
C123   C124    1.385   .     S
C124   H82     1.090   .     S
C124   C125    1.370   .     S
C125   H83     1.090   .     S
C125   C126    1.387   .     S
C126   C127    1.389   .     S
C127   C128    1.364   .     S
C127   H84     1.090   .     S
C128   H85     1.090   .     S
N10    C129    1.273   .     S
C129   C130    1.429   .     S
C129   H86     1.105   .     S
C130   C135    1.389   .     S
C130   C131    1.387   .     S
C131   C132    1.372   .     S
C131   H87     1.091   .     S
C132   H88     1.089   .     S
C132   C133    1.385   .     S
C133   C134    1.389   .     S
C134   H89     1.089   .     S
C134   C135    1.363   .     S
C135   H90     1.088   .     S
C136   C143    1.453   .     S
C137   C138    1.388   .     S
C137   C142    1.391   .     S
C138   H92     1.093   .     S
C138   C139    1.366   .     S
C139   C140    1.392   .     S
C139   H93     1.093   .     S
C140   N11     1.363   .     S
C140   C141    1.395   .     S
C141   H94     1.092   .     S
C141   C142    1.365   .     S
C142   H91     1.089   .     S
C143   C148    1.395   .     S
C143   C144    1.393   .     S
C144   C145    1.368   .     S
C144   H95     1.091   .     S
C145   H96     1.088   .     S
C145   C146    1.387   .     S
C146   N12     1.363   .     S
C146   C147    1.394   .     S
C147   C148    1.363   .     S
C147   H97     1.091   .     S
C148   H98     1.087   .     S
N11    C149    1.270   .     S
C149   H99     1.105   .     S
C149   C150    1.427   .     S
C150   C155    1.387   .     S
C150   C151    1.385   .     S
C151   H100    1.090   .     S
C151   C152    1.370   .     S
C152   H101    1.090   .     S
C152   C153    1.387   .     S
C153   C154    1.389   .     S
C154   H102    1.090   .     S
C154   C155    1.364   .     S
C155   H103    1.090   .     S
N12    C156    1.273   .     S
C156   C157    1.429   .     S
C156   H104    1.105   .     S
C157   C162    1.389   .     S
C157   C158    1.387   .     S
C158   C159    1.372   .     S
C158   H105    1.091   .     S
C159   H106    1.089   .     S
C159   C160    1.385   .     S
C160   C161    1.389   .     S
C161   C162    1.363   .     S
C161   H107    1.089   .     S
C162   H108    1.088   .     S
