data_DhaTta-23
_audit_creation_date              2016-12-13
_audit_creation_method            'Materials Studio'
_symmetry_space_group_name_H-M    'P1'
_symmetry_Int_Tables_number       1
_symmetry_cell_setting            triclinic
loop_
_symmetry_equiv_pos_as_xyz
  x,y,z
_cell_length_a                    65.5309
_cell_length_b                    37.8343
_cell_length_c                    3.4000
_cell_angle_alpha                 90.0000
_cell_angle_beta                  90.0000
_cell_angle_gamma                 90.0000
loop_
_atom_site_label
_atom_site_type_symbol
_atom_site_fract_x
_atom_site_fract_y
_atom_site_fract_z
_atom_site_U_iso_or_equiv
_atom_site_adp_type
_atom_site_occupancy
C1     C     0.73299   0.13831   0.49759   0.00000  Uiso   1.00
C2     C     0.55853   0.01268   0.45113   0.00000  Uiso   1.00
C3     C     0.70926   0.81233   0.49829   0.00000  Uiso   1.00
C4     C     0.23299   0.63831   0.49759   0.00000  Uiso   1.00
C5     C     0.05853   0.51268   0.45113   0.00000  Uiso   1.00
C6     C     0.20926   0.31233   0.49829   0.00000  Uiso   1.00
C7     C     0.26701   0.13831   0.50241   0.00000  Uiso   1.00
C8     C     0.44147   0.01268   0.54887   0.00000  Uiso   1.00
C9     C     0.29074   0.81233   0.50171   0.00000  Uiso   1.00
C10    C     0.76701   0.63831   0.50241   0.00000  Uiso   1.00
C11    C     0.94147   0.51268   0.54887   0.00000  Uiso   1.00
C12    C     0.79074   0.31233   0.50171   0.00000  Uiso   1.00
N13    N     0.72780   0.17324   0.47516   0.00000  Uiso   1.00
N14    N     0.54314   0.98855   0.49424   0.00000  Uiso   1.00
N15    N     0.72929   0.80249   0.52149   0.00000  Uiso   1.00
N16    N     0.22780   0.67324   0.47516   0.00000  Uiso   1.00
N17    N     0.04314   0.48855   0.49424   0.00000  Uiso   1.00
N18    N     0.22929   0.30249   0.52149   0.00000  Uiso   1.00
N19    N     0.27220   0.17324   0.52484   0.00000  Uiso   1.00
N20    N     0.45686   0.98855   0.50576   0.00000  Uiso   1.00
N21    N     0.27071   0.80249   0.47851   0.00000  Uiso   1.00
N22    N     0.77220   0.67324   0.52484   0.00000  Uiso   1.00
N23    N     0.95686   0.48855   0.50576   0.00000  Uiso   1.00
N24    N     0.77071   0.30249   0.47851   0.00000  Uiso   1.00
C25    C     0.73998   0.20285   0.45618   0.00000  Uiso   1.00
C26    C     0.52222   0.99268   0.49761   0.00000  Uiso   1.00
C27    C     0.73795   0.76937   0.54207   0.00000  Uiso   1.00
C28    C     0.23998   0.70285   0.45618   0.00000  Uiso   1.00
C29    C     0.02222   0.49268   0.49761   0.00000  Uiso   1.00
C30    C     0.23795   0.26937   0.54207   0.00000  Uiso   1.00
C31    C     0.26002   0.20285   0.54382   0.00000  Uiso   1.00
C32    C     0.47778   0.99268   0.50239   0.00000  Uiso   1.00
C33    C     0.26205   0.76937   0.45793   0.00000  Uiso   1.00
C34    C     0.76002   0.70285   0.54382   0.00000  Uiso   1.00
C35    C     0.97778   0.49268   0.50239   0.00000  Uiso   1.00
C36    C     0.76205   0.26937   0.45793   0.00000  Uiso   1.00
C37    C     0.73031   0.23518   0.54855   0.00000  Uiso   1.00
C38    C     0.51079   0.96101   0.49847   0.00000  Uiso   1.00
C39    C     0.75895   0.76756   0.45066   0.00000  Uiso   1.00
C40    C     0.23031   0.73518   0.54855   0.00000  Uiso   1.00
C41    C     0.01079   0.46101   0.49847   0.00000  Uiso   1.00
C42    C     0.25895   0.26756   0.45066   0.00000  Uiso   1.00
C43    C     0.26969   0.23518   0.45145   0.00000  Uiso   1.00
C44    C     0.48921   0.96101   0.50153   0.00000  Uiso   1.00
C45    C     0.24105   0.76756   0.54934   0.00000  Uiso   1.00
C46    C     0.76969   0.73518   0.45145   0.00000  Uiso   1.00
C47    C     0.98921   0.46101   0.50153   0.00000  Uiso   1.00
C48    C     0.74105   0.26756   0.54934   0.00000  Uiso   1.00
H49    H     0.74820   0.13248   0.52109   0.00000  Uiso   1.00
H50    H     0.55443   0.03836   0.40352   0.00000  Uiso   1.00
H51    H     0.69869   0.79251   0.47549   0.00000  Uiso   1.00
H52    H     0.24820   0.63248   0.52109   0.00000  Uiso   1.00
H53    H     0.05443   0.53836   0.40352   0.00000  Uiso   1.00
H54    H     0.19869   0.29251   0.47549   0.00000  Uiso   1.00
H55    H     0.25180   0.13248   0.47891   0.00000  Uiso   1.00
H56    H     0.44557   0.03836   0.59648   0.00000  Uiso   1.00
H57    H     0.30131   0.79251   0.52451   0.00000  Uiso   1.00
H58    H     0.75180   0.63248   0.47891   0.00000  Uiso   1.00
H59    H     0.94557   0.53836   0.59648   0.00000  Uiso   1.00
H60    H     0.80131   0.29251   0.52451   0.00000  Uiso   1.00
H61    H     0.71512   0.23515   0.62033   0.00000  Uiso   1.00
H62    H     0.51833   0.93729   0.49681   0.00000  Uiso   1.00
H63    H     0.76659   0.79028   0.37841   0.00000  Uiso   1.00
H64    H     0.21512   0.73515   0.62033   0.00000  Uiso   1.00
H65    H     0.01833   0.43729   0.49681   0.00000  Uiso   1.00
H66    H     0.26659   0.29028   0.37841   0.00000  Uiso   1.00
H67    H     0.28488   0.23515   0.37967   0.00000  Uiso   1.00
H68    H     0.48167   0.93729   0.50319   0.00000  Uiso   1.00
H69    H     0.23341   0.79028   0.62159   0.00000  Uiso   1.00
H70    H     0.78488   0.73515   0.37967   0.00000  Uiso   1.00
H71    H     0.98167   0.43729   0.50319   0.00000  Uiso   1.00
H72    H     0.73341   0.29028   0.62159   0.00000  Uiso   1.00
C73    C     0.77190   0.23718   0.34669   0.00000  Uiso   1.00
C74    C     0.98906   0.52502   0.49693   0.00000  Uiso   1.00
C75    C     0.73900   0.70433   0.65452   0.00000  Uiso   1.00
C76    C     0.27190   0.73718   0.34669   0.00000  Uiso   1.00
C77    C     0.48906   0.02502   0.49693   0.00000  Uiso   1.00
C78    C     0.23900   0.20433   0.65452   0.00000  Uiso   1.00
C79    C     0.22810   0.23718   0.65331   0.00000  Uiso   1.00
C80    C     0.01094   0.52502   0.50307   0.00000  Uiso   1.00
C81    C     0.26100   0.70433   0.34548   0.00000  Uiso   1.00
C82    C     0.72810   0.73718   0.65331   0.00000  Uiso   1.00
C83    C     0.51094   0.02502   0.50307   0.00000  Uiso   1.00
C84    C     0.76100   0.20433   0.34548   0.00000  Uiso   1.00
O85    O     0.79176   0.23821   0.22240   0.00000  Uiso   1.00
O86    O     0.97885   0.55648   0.48077   0.00000  Uiso   1.00
O87    O     0.72953   0.67414   0.78068   0.00000  Uiso   1.00
O88    O     0.29176   0.73821   0.22240   0.00000  Uiso   1.00
O89    O     0.47885   0.05648   0.48077   0.00000  Uiso   1.00
O90    O     0.22953   0.17414   0.78068   0.00000  Uiso   1.00
O91    O     0.20824   0.23821   0.77760   0.00000  Uiso   1.00
O92    O     0.02116   0.55648   0.51923   0.00000  Uiso   1.00
O93    O     0.27047   0.67414   0.21932   0.00000  Uiso   1.00
O94    O     0.70824   0.73821   0.77760   0.00000  Uiso   1.00
O95    O     0.52116   0.05648   0.51923   0.00000  Uiso   1.00
O96    O     0.77047   0.17414   0.21932   0.00000  Uiso   1.00
C97    C     0.78588   0.37811   0.49006   0.00000  Uiso   1.00
C98    C     0.91131   0.47177   0.50856   0.00000  Uiso   1.00
C99    C     0.80227   0.61252   0.51758   0.00000  Uiso   1.00
C100   C     0.28588   0.87811   0.49006   0.00000  Uiso   1.00
C101   C     0.41131   0.97177   0.50856   0.00000  Uiso   1.00
C102   C     0.30227   0.11252   0.51758   0.00000  Uiso   1.00
C103   C     0.21412   0.37811   0.50994   0.00000  Uiso   1.00
C104   C     0.08869   0.47177   0.49144   0.00000  Uiso   1.00
C105   C     0.19773   0.61252   0.48242   0.00000  Uiso   1.00
C106   C     0.71412   0.87811   0.50994   0.00000  Uiso   1.00
C107   C     0.58869   0.97177   0.49144   0.00000  Uiso   1.00
C108   C     0.69773   0.11252   0.48242   0.00000  Uiso   1.00
C109   C     0.79434   0.41266   0.49133   0.00000  Uiso   1.00
C110   C     0.88983   0.46681   0.50174   0.00000  Uiso   1.00
C111   C     0.81527   0.58249   0.51863   0.00000  Uiso   1.00
C112   C     0.29434   0.91266   0.49133   0.00000  Uiso   1.00
C113   C     0.38983   0.96681   0.50174   0.00000  Uiso   1.00
C114   C     0.31527   0.08249   0.51863   0.00000  Uiso   1.00
C115   C     0.20566   0.41266   0.50867   0.00000  Uiso   1.00
C116   C     0.11018   0.46681   0.49826   0.00000  Uiso   1.00
C117   C     0.18473   0.58249   0.48137   0.00000  Uiso   1.00
C118   C     0.70566   0.91266   0.50867   0.00000  Uiso   1.00
C119   C     0.61018   0.96681   0.49826   0.00000  Uiso   1.00
C120   C     0.68473   0.08249   0.48137   0.00000  Uiso   1.00
H121   H     0.77036   0.37531   0.47967   0.00000  Uiso   1.00
H122   H     0.92064   0.45013   0.49301   0.00000  Uiso   1.00
H123   H     0.80867   0.63717   0.52767   0.00000  Uiso   1.00
H124   H     0.27036   0.87531   0.47967   0.00000  Uiso   1.00
H125   H     0.42064   0.95013   0.49301   0.00000  Uiso   1.00
H126   H     0.30867   0.13717   0.52767   0.00000  Uiso   1.00
H127   H     0.22964   0.37531   0.52033   0.00000  Uiso   1.00
H128   H     0.07936   0.45013   0.50699   0.00000  Uiso   1.00
H129   H     0.19133   0.63717   0.47233   0.00000  Uiso   1.00
H130   H     0.72964   0.87531   0.52033   0.00000  Uiso   1.00
H131   H     0.57936   0.95013   0.50699   0.00000  Uiso   1.00
H132   H     0.69133   0.13717   0.47233   0.00000  Uiso   1.00
H133   H     0.78454   0.43369   0.48188   0.00000  Uiso   1.00
H134   H     0.88435   0.44155   0.48131   0.00000  Uiso   1.00
H135   H     0.83068   0.58661   0.52941   0.00000  Uiso   1.00
H136   H     0.28454   0.93369   0.48188   0.00000  Uiso   1.00
H137   H     0.38435   0.94155   0.48131   0.00000  Uiso   1.00
H138   H     0.33068   0.08661   0.52941   0.00000  Uiso   1.00
H139   H     0.21546   0.43369   0.51812   0.00000  Uiso   1.00
H140   H     0.11565   0.44155   0.51869   0.00000  Uiso   1.00
H141   H     0.16932   0.58661   0.47059   0.00000  Uiso   1.00
H142   H     0.71546   0.93369   0.51812   0.00000  Uiso   1.00
H143   H     0.61565   0.94155   0.51869   0.00000  Uiso   1.00
H144   H     0.66932   0.08661   0.47059   0.00000  Uiso   1.00
C145   C     0.77304   0.57412   0.48973   0.00000  Uiso   1.00
C146   C     0.81973   0.35361   0.51646   0.00000  Uiso   1.00
C147   C     0.90620   0.53461   0.55655   0.00000  Uiso   1.00
C148   C     0.27304   0.07412   0.48973   0.00000  Uiso   1.00
C149   C     0.31973   0.85361   0.51646   0.00000  Uiso   1.00
C150   C     0.40620   0.03461   0.55655   0.00000  Uiso   1.00
C151   C     0.22696   0.57412   0.51027   0.00000  Uiso   1.00
C152   C     0.18027   0.35361   0.48354   0.00000  Uiso   1.00
C153   C     0.09380   0.53461   0.44346   0.00000  Uiso   1.00
C154   C     0.72696   0.07412   0.51027   0.00000  Uiso   1.00
C155   C     0.68027   0.85361   0.48354   0.00000  Uiso   1.00
C156   C     0.59380   0.03461   0.44346   0.00000  Uiso   1.00
C157   C     0.78600   0.54426   0.49137   0.00000  Uiso   1.00
C158   C     0.82813   0.38802   0.51712   0.00000  Uiso   1.00
C159   C     0.88484   0.52962   0.54846   0.00000  Uiso   1.00
C160   C     0.28600   0.04426   0.49137   0.00000  Uiso   1.00
C161   C     0.32813   0.88802   0.51712   0.00000  Uiso   1.00
C162   C     0.38484   0.02962   0.54846   0.00000  Uiso   1.00
C163   C     0.21400   0.54426   0.50863   0.00000  Uiso   1.00
C164   C     0.17187   0.38802   0.48288   0.00000  Uiso   1.00
C165   C     0.11516   0.52962   0.45154   0.00000  Uiso   1.00
C166   C     0.71400   0.04426   0.50863   0.00000  Uiso   1.00
C167   C     0.67187   0.88802   0.48288   0.00000  Uiso   1.00
C168   C     0.61516   0.02962   0.45154   0.00000  Uiso   1.00
H169   H     0.75761   0.56986   0.47883   0.00000  Uiso   1.00
H170   H     0.82962   0.33266   0.52594   0.00000  Uiso   1.00
H171   H     0.91153   0.55999   0.57702   0.00000  Uiso   1.00
H172   H     0.25761   0.06986   0.47883   0.00000  Uiso   1.00
H173   H     0.32962   0.83266   0.52594   0.00000  Uiso   1.00
H174   H     0.41153   0.05999   0.57702   0.00000  Uiso   1.00
H175   H     0.24239   0.56986   0.52117   0.00000  Uiso   1.00
H176   H     0.17038   0.33266   0.47406   0.00000  Uiso   1.00
H177   H     0.08847   0.55999   0.42298   0.00000  Uiso   1.00
H178   H     0.74239   0.06986   0.52117   0.00000  Uiso   1.00
H179   H     0.67038   0.83266   0.47406   0.00000  Uiso   1.00
H180   H     0.58847   0.05999   0.42298   0.00000  Uiso   1.00
H181   H     0.77936   0.51979   0.48138   0.00000  Uiso   1.00
H182   H     0.84367   0.39037   0.52731   0.00000  Uiso   1.00
H183   H     0.87577   0.55160   0.56373   0.00000  Uiso   1.00
H184   H     0.27936   0.01979   0.48138   0.00000  Uiso   1.00
H185   H     0.34367   0.89037   0.52731   0.00000  Uiso   1.00
H186   H     0.37577   0.05160   0.56373   0.00000  Uiso   1.00
H187   H     0.22064   0.51979   0.51862   0.00000  Uiso   1.00
H188   H     0.15633   0.39037   0.47269   0.00000  Uiso   1.00
H189   H     0.12423   0.55160   0.43627   0.00000  Uiso   1.00
H190   H     0.72064   0.01979   0.51862   0.00000  Uiso   1.00
H191   H     0.65633   0.89037   0.47269   0.00000  Uiso   1.00
H192   H     0.62423   0.05160   0.43627   0.00000  Uiso   1.00
C193   C     0.82049   0.51680   0.50789   0.00000  Uiso   1.00
C194   C     0.82452   0.45348   0.50664   0.00000  Uiso   1.00
C195   C     0.85416   0.49116   0.51526   0.00000  Uiso   1.00
C196   C     0.32049   0.01680   0.50789   0.00000  Uiso   1.00
C197   C     0.32452   0.95348   0.50664   0.00000  Uiso   1.00
C198   C     0.35416   0.99116   0.51526   0.00000  Uiso   1.00
C199   C     0.17951   0.51680   0.49211   0.00000  Uiso   1.00
C200   C     0.17548   0.45348   0.49336   0.00000  Uiso   1.00
C201   C     0.14584   0.49116   0.48474   0.00000  Uiso   1.00
C202   C     0.67951   0.01680   0.49211   0.00000  Uiso   1.00
C203   C     0.67548   0.95348   0.49336   0.00000  Uiso   1.00
C204   C     0.64584   0.99116   0.48474   0.00000  Uiso   1.00
C205   C     0.78076   0.60914   0.50307   0.00000  Uiso   1.00
C206   C     0.79837   0.34759   0.50285   0.00000  Uiso   1.00
C207   C     0.92009   0.50589   0.53733   0.00000  Uiso   1.00
C208   C     0.28076   0.10914   0.50307   0.00000  Uiso   1.00
C209   C     0.29837   0.84759   0.50285   0.00000  Uiso   1.00
C210   C     0.42009   0.00589   0.53733   0.00000  Uiso   1.00
C211   C     0.21924   0.60914   0.49693   0.00000  Uiso   1.00
C212   C     0.20163   0.34759   0.49715   0.00000  Uiso   1.00
C213   C     0.07991   0.50589   0.46267   0.00000  Uiso   1.00
C214   C     0.71924   0.10914   0.49693   0.00000  Uiso   1.00
C215   C     0.70163   0.84759   0.49715   0.00000  Uiso   1.00
C216   C     0.57991   0.00589   0.46267   0.00000  Uiso   1.00
C217   C     0.80757   0.54733   0.50599   0.00000  Uiso   1.00
C218   C     0.81575   0.41880   0.50480   0.00000  Uiso   1.00
C219   C     0.87586   0.49558   0.52146   0.00000  Uiso   1.00
C220   C     0.30757   0.04733   0.50599   0.00000  Uiso   1.00
C221   C     0.31575   0.91880   0.50480   0.00000  Uiso   1.00
C222   C     0.37586   0.99558   0.52146   0.00000  Uiso   1.00
C223   C     0.19243   0.54733   0.49402   0.00000  Uiso   1.00
C224   C     0.18425   0.41880   0.49520   0.00000  Uiso   1.00
C225   C     0.12414   0.49558   0.47854   0.00000  Uiso   1.00
C226   C     0.69243   0.04733   0.49402   0.00000  Uiso   1.00
C227   C     0.68425   0.91880   0.49520   0.00000  Uiso   1.00
C228   C     0.62414   0.99558   0.47854   0.00000  Uiso   1.00
N229   N     0.84123   0.51943   0.51348   0.00000  Uiso   1.00
N230   N     0.81280   0.48327   0.50460   0.00000  Uiso   1.00
N231   N     0.84514   0.45868   0.51153   0.00000  Uiso   1.00
N232   N     0.34123   0.01943   0.51348   0.00000  Uiso   1.00
N233   N     0.31280   0.98327   0.50460   0.00000  Uiso   1.00
N234   N     0.34514   0.95868   0.51153   0.00000  Uiso   1.00
N235   N     0.15877   0.51943   0.48652   0.00000  Uiso   1.00
N236   N     0.18720   0.48327   0.49540   0.00000  Uiso   1.00
N237   N     0.15486   0.45868   0.48847   0.00000  Uiso   1.00
N238   N     0.65877   0.01943   0.48652   0.00000  Uiso   1.00
N239   N     0.68720   0.98327   0.49540   0.00000  Uiso   1.00
N240   N     0.65486   0.95868   0.48847   0.00000  Uiso   1.00
H241   H     0.79860   0.21655   0.13388   0.00000  Uiso   1.00
H242   H     0.98633   0.57886   0.46628   0.00000  Uiso   1.00
H243   H     0.71530   0.67459   0.87048   0.00000  Uiso   1.00
H244   H     0.29860   0.71655   0.13388   0.00000  Uiso   1.00
H245   H     0.48633   0.07886   0.46628   0.00000  Uiso   1.00
H246   H     0.21530   0.17459   0.87048   0.00000  Uiso   1.00
H247   H     0.20140   0.21655   0.86612   0.00000  Uiso   1.00
H248   H     0.01367   0.57886   0.53372   0.00000  Uiso   1.00
H249   H     0.28470   0.67459   0.12952   0.00000  Uiso   1.00
H250   H     0.70140   0.71655   0.86612   0.00000  Uiso   1.00
H251   H     0.51367   0.07886   0.53372   0.00000  Uiso   1.00
H252   H     0.78470   0.17459   0.12952   0.00000  Uiso   1.00
loop_
_geom_bond_atom_site_label_1
_geom_bond_atom_site_label_2
_geom_bond_distance
_geom_bond_site_symmetry_2
_ccdc_geom_bond_type
C1     C214    1.425   .     S
C1     N13     1.367   .     S
C1     H49     1.024   .     S
C2     H50     1.021   .     S
C2     C216    1.425   .     S
C3     C215    1.425   .     S
C3     H51     1.024   .     S
C3     N15     1.367   .     S
C4     C211    1.425   .     S
C4     N16     1.367   .     S
C4     H52     1.024   .     S
C5     C213    1.425   .     S
C5     N17     1.368   .     S
C5     H53     1.021   .     S
C6     H54     1.024   .     S
C6     C212    1.425   .     S
C6     N18     1.367   .     S
C7     H55     1.024   .     S
C7     C208    1.425   .     S
C7     N19     1.367   .     S
C8     H56     1.021   .     S
C8     C210    1.425   .     S
C9     N21     1.367   .     S
C9     C209    1.425   .     S
C9     H57     1.024   .     S
C10    C205    1.425   .     S
C10    H58     1.024   .     S
C10    N22     1.367   .     S
C11    C207    1.425   .     S
C11    H59     1.021   .     S
C11    N23     1.368   .     S
C12    N24     1.367   .     S
C12    C206    1.425   .     S
C12    H60     1.024   .     S
N13    C25     1.377   .     S
N14    C26     1.380   .     S
N15    C27     1.377   .     S
N16    C28     1.377   .     S
N17    C29     1.380   .     S
N18    C30     1.377   .     S
N19    C31     1.377   .     S
N20    C32     1.380   .     S
N21    C33     1.377   .     S
N22    C34     1.377   .     S
N23    C35     1.380   .     S
N24    C36     1.377   .     S
C25    C84     1.429   .     S
C25    C37     1.413   .     S
C26    C38     1.413   .     S
C27    C82     1.429   .     S
C27    C39     1.413   .     S
C28    C81     1.429   .     S
C28    C40     1.413   .     S
C29    C80     1.430   .     S
C29    C41     1.413   .     S
C30    C79     1.429   .     S
C30    C42     1.413   .     S
C31    C78     1.429   .     S
C31    C43     1.413   .     S
C32    C44     1.413   .     S
C33    C76     1.429   .     S
C33    C45     1.413   .     S
C34    C75     1.429   .     S
C34    C46     1.413   .     S
C35    C74     1.430   .     S
C35    C47     1.413   .     S
C36    C73     1.429   .     S
C36    C48     1.413   .     S
C37    C48     1.413   .     S
C37    H61     1.025   .     S
C38    C44     1.414   .     S
C38    H62     1.024   .     S
C39    H63     1.025   .     S
C39    C46     1.413   .     S
C40    H64     1.025   .     S
C40    C45     1.413   .     S
C41    H65     1.024   .     S
C42    C43     1.413   .     S
C42    H66     1.025   .     S
C43    H67     1.025   .     S
C44    H68     1.024   .     S
C45    H69     1.025   .     S
C46    H70     1.025   .     S
C47    H71     1.024   .     S
C48    H72     1.025   .     S
C73    O85     1.369   .     S
C73    C84     1.434   .     S
C74    O86     1.367   .     S
C75    C82     1.434   .     S
C75    O87     1.369   .     S
C76    O88     1.369   .     S
C76    C81     1.434   .     S
C77    C83     1.434   .     S
C77    O89     1.367   .     S
C78    C79     1.434   .     S
C78    O90     1.369   .     S
C79    O91     1.369   .     S
C80    O92     1.367   .     S
C81    O93     1.369   .     S
C82    O94     1.369   .     S
C83    O95     1.367   .     S
C84    O96     1.369   .     S
O85    H241    0.981   .     S
O86    H242    0.980   .     S
O87    H243    0.981   .     S
O88    H244    0.981   .     S
O89    H245    0.980   .     S
O90    H246    0.981   .     S
O91    H247    0.981   .     S
O92    H248    0.980   .     S
O93    H249    0.981   .     S
O94    H250    0.981   .     S
O95    H251    0.980   .     S
O96    H252    0.981   .     S
C97    C109    1.420   .     S
C97    H121    1.023   .     S
C97    C206    1.416   .     S
C98    C110    1.421   .     S
C98    H122    1.023   .     S
C98    C207    1.416   .     S
C99    C205    1.416   .     S
C99    C111    1.420   .     S
C99    H123    1.023   .     S
C100   H124    1.023   .     S
C100   C209    1.416   .     S
C100   C112    1.420   .     S
C101   H125    1.023   .     S
C101   C113    1.421   .     S
C102   C208    1.416   .     S
C102   C114    1.420   .     S
C102   H126    1.023   .     S
C103   C115    1.420   .     S
C103   H127    1.023   .     S
C103   C212    1.416   .     S
C104   C213    1.416   .     S
C104   H128    1.023   .     S
C104   C116    1.421   .     S
C105   H129    1.023   .     S
C105   C211    1.416   .     S
C105   C117    1.420   .     S
C106   H130    1.023   .     S
C106   C215    1.416   .     S
C106   C118    1.420   .     S
C107   H131    1.023   .     S
C107   C119    1.421   .     S
C108   H132    1.023   .     S
C108   C214    1.416   .     S
C108   C120    1.420   .     S
C109   C218    1.423   .     S
C109   H133    1.023   .     S
C110   H134    1.023   .     S
C110   C219    1.424   .     S
C111   C217    1.423   .     S
C111   H135    1.023   .     S
C112   H136    1.023   .     S
C112   C221    1.423   .     S
C113   H137    1.023   .     S
C113   C222    1.424   .     S
C114   C220    1.423   .     S
C114   H138    1.023   .     S
C115   C224    1.423   .     S
C115   H139    1.023   .     S
C116   H140    1.023   .     S
C116   C225    1.424   .     S
C117   H141    1.023   .     S
C117   C223    1.423   .     S
C118   H142    1.023   .     S
C118   C227    1.423   .     S
C119   H143    1.023   .     S
C119   C228    1.424   .     S
C120   C226    1.423   .     S
C120   H144    1.023   .     S
C145   H169    1.024   .     S
C145   C205    1.419   .     S
C145   C157    1.414   .     S
C146   C206    1.419   .     S
C146   C158    1.413   .     S
C146   H170    1.024   .     S
C147   H171    1.024   .     S
C147   C159    1.412   .     S
C147   C207    1.419   .     S
C148   H172    1.024   .     S
C148   C208    1.419   .     S
C148   C160    1.414   .     S
C149   C209    1.419   .     S
C149   C161    1.413   .     S
C149   H173    1.024   .     S
C150   C210    1.419   .     S
C150   C162    1.412   .     S
C150   H174    1.024   .     S
C151   C211    1.419   .     S
C151   C163    1.414   .     S
C151   H175    1.024   .     S
C152   H176    1.024   .     S
C152   C212    1.419   .     S
C152   C164    1.413   .     S
C153   H177    1.024   .     S
C153   C165    1.412   .     S
C153   C213    1.419   .     S
C154   C214    1.419   .     S
C154   C166    1.414   .     S
C154   H178    1.024   .     S
C155   C215    1.419   .     S
C155   C167    1.413   .     S
C155   H179    1.024   .     S
C156   C216    1.419   .     S
C156   C168    1.412   .     S
C156   H180    1.024   .     S
C157   C217    1.419   .     S
C157   H181    1.023   .     S
C158   C218    1.419   .     S
C158   H182    1.023   .     S
C159   H183    1.023   .     S
C159   C219    1.419   .     S
C160   H184    1.023   .     S
C160   C220    1.419   .     S
C161   C221    1.419   .     S
C161   H185    1.023   .     S
C162   H186    1.023   .     S
C163   C223    1.419   .     S
C163   H187    1.023   .     S
C164   C224    1.419   .     S
C164   H188    1.023   .     S
C165   H189    1.023   .     S
C165   C225    1.419   .     S
C166   H190    1.023   .     S
C166   C226    1.419   .     S
C167   H191    1.023   .     S
C167   C227    1.419   .     S
C168   H192    1.023   .     S
C193   C217    1.432   .     S
C193   N229    1.363   .     S
C193   N230    1.365   .     S
C194   N231    1.366   .     S
C194   N230    1.364   .     S
C194   C218    1.432   .     S
C195   N229    1.365   .     S
C195   N231    1.363   .     S
C195   C219    1.432   .     S
C196   N232    1.363   .     S
C196   C220    1.432   .     S
C197   N234    1.366   .     S
C197   N233    1.364   .     S
C197   C221    1.432   .     S
C198   N234    1.363   .     S
C198   C222    1.432   .     S
C199   N235    1.363   .     S
C199   C223    1.432   .     S
C199   N236    1.365   .     S
C200   N237    1.366   .     S
C200   N236    1.364   .     S
C200   C224    1.432   .     S
C201   C225    1.432   .     S
C201   N235    1.365   .     S
C201   N237    1.363   .     S
C202   N238    1.363   .     S
C202   C226    1.432   .     S
C203   N240    1.366   .     S
C203   N239    1.364   .     S
C203   C227    1.432   .     S
C204   C228    1.432   .     S
C204   N240    1.363   .     S
