data_HO2C-H2P-COFs
_audit_creation_date              2016-12-13
_audit_creation_method            'Materials Studio'
_symmetry_space_group_name_H-M    'P1'
_symmetry_Int_Tables_number       1
_symmetry_cell_setting            triclinic
loop_
_symmetry_equiv_pos_as_xyz
  x,y,z
_cell_length_a                    25.5353
_cell_length_b                    6.7739
_cell_length_c                    25.4792
_cell_angle_alpha                 90.0000
_cell_angle_beta                  90.4367
_cell_angle_gamma                 90.0000
loop_
_atom_site_label
_atom_site_type_symbol
_atom_site_fract_x
_atom_site_fract_y
_atom_site_fract_z
_atom_site_U_iso_or_equiv
_atom_site_adp_type
_atom_site_occupancy
C1     C     0.55633   0.50000   0.50338   0.00000  Uiso   1.00
C2     C     0.44369   0.50000   0.49660   0.00000  Uiso   1.00
C3     C     0.00603   0.50000   0.94413   0.00000  Uiso   1.00
C4     C     0.99399   0.50000   0.05586   0.00000  Uiso   1.00
C5     C     0.61140   0.50000   0.50973   0.00000  Uiso   1.00
H6     H     0.62678   0.50000   0.54710   0.00000  Uiso   1.00
C7     C     0.38862   0.50000   0.49026   0.00000  Uiso   1.00
H8     H     0.37324   0.50000   0.45288   0.00000  Uiso   1.00
C9     C     0.01290   0.50000   0.88927   0.00000  Uiso   1.00
H10    H     0.05020   0.50000   0.87456   0.00000  Uiso   1.00
C11    C     0.98712   0.50000   0.11072   0.00000  Uiso   1.00
H12    H     0.94982   0.50000   0.12542   0.00000  Uiso   1.00
C13    C     0.52490   0.50000   0.54897   0.00000  Uiso   1.00
C14    C     0.47512   0.50000   0.45102   0.00000  Uiso   1.00
C15    C     0.05020   0.50000   0.97797   0.00000  Uiso   1.00
C16    C     0.94981   0.50000   0.02201   0.00000  Uiso   1.00
C17    C     0.46995   0.50000   0.54598   0.00000  Uiso   1.00
C18    C     0.53007   0.50000   0.45400   0.00000  Uiso   1.00
C19    C     0.04427   0.50000   0.03287   0.00000  Uiso   1.00
C20    C     0.95575   0.50000   0.96711   0.00000  Uiso   1.00
H21    H     0.54156   0.50000   0.58561   0.00000  Uiso   1.00
H22    H     0.45846   0.50000   0.41437   0.00000  Uiso   1.00
H23    H     0.08731   0.50000   0.96300   0.00000  Uiso   1.00
H24    H     0.91271   0.50000   0.03698   0.00000  Uiso   1.00
C25    C     0.04015   0.50000   0.61516   0.00000  Uiso   1.00
C26    C     0.95987   0.50000   0.38482   0.00000  Uiso   1.00
C27    C     0.10692   0.50000   0.55850   0.00000  Uiso   1.00
C28    C     0.89310   0.50000   0.44149   0.00000  Uiso   1.00
C29    C     0.08678   0.50000   0.64410   0.00000  Uiso   1.00
C30    C     0.91324   0.50000   0.35589   0.00000  Uiso   1.00
C31    C     0.12781   0.50000   0.60928   0.00000  Uiso   1.00
C32    C     0.87221   0.50000   0.39071   0.00000  Uiso   1.00
H33    H     0.09062   0.50000   0.68404   0.00000  Uiso   1.00
H34    H     0.90940   0.50000   0.31595   0.00000  Uiso   1.00
H35    H     0.16656   0.50000   0.61959   0.00000  Uiso   1.00
H36    H     0.83346   0.50000   0.38039   0.00000  Uiso   1.00
N37    N     0.93735   0.50000   0.55317   0.00000  Uiso   1.00
N38    N     0.06267   0.50000   0.44682   0.00000  Uiso   1.00
C39    C     0.94263   0.50000   0.60618   0.00000  Uiso   1.00
C40    C     0.05739   0.50000   0.39381   0.00000  Uiso   1.00
C41    C     0.11405   0.50000   0.46073   0.00000  Uiso   1.00
C42    C     0.88597   0.50000   0.53925   0.00000  Uiso   1.00
C43    C     0.89221   0.50000   0.62694   0.00000  Uiso   1.00
C44    C     0.10781   0.50000   0.37305   0.00000  Uiso   1.00
C45    C     0.14278   0.50000   0.41435   0.00000  Uiso   1.00
C46    C     0.85724   0.50000   0.58564   0.00000  Uiso   1.00
H47    H     0.88223   0.50000   0.66571   0.00000  Uiso   1.00
H48    H     0.11779   0.50000   0.33427   0.00000  Uiso   1.00
H49    H     0.18263   0.50000   0.41085   0.00000  Uiso   1.00
H50    H     0.81739   0.50000   0.58913   0.00000  Uiso   1.00
C51    C     0.98924   0.50000   0.63658   0.00000  Uiso   1.00
C52    C     0.01078   0.50000   0.36341   0.00000  Uiso   1.00
C53    C     0.13636   0.50000   0.51173   0.00000  Uiso   1.00
C54    C     0.86365   0.50000   0.48825   0.00000  Uiso   1.00
C55    C     0.98483   0.50000   0.69184   0.00000  Uiso   1.00
C56    C     0.01519   0.50000   0.30815   0.00000  Uiso   1.00
C57    C     0.19154   0.50000   0.51645   0.00000  Uiso   1.00
C58    C     0.80847   0.50000   0.48354   0.00000  Uiso   1.00
C59    C     0.98256   0.68005   0.71974   0.00000  Uiso   1.00
C60    C     0.01746   0.68005   0.28025   0.00000  Uiso   1.00
C61    C     0.01746   0.31995   0.28025   0.00000  Uiso   1.00
C62    C     0.98256   0.31995   0.71974   0.00000  Uiso   1.00
C63    C     0.21940   0.31993   0.51891   0.00000  Uiso   1.00
C64    C     0.78062   0.31993   0.48108   0.00000  Uiso   1.00
C65    C     0.78062   0.68007   0.48108   0.00000  Uiso   1.00
C66    C     0.21940   0.68007   0.51891   0.00000  Uiso   1.00
H67    H     0.98404   0.81173   0.70011   0.00000  Uiso   1.00
H68    H     0.01597   0.81173   0.29987   0.00000  Uiso   1.00
H69    H     0.01597   0.18827   0.29987   0.00000  Uiso   1.00
H70    H     0.98404   0.18827   0.70011   0.00000  Uiso   1.00
H71    H     0.19982   0.18823   0.51728   0.00000  Uiso   1.00
H72    H     0.80020   0.18823   0.48271   0.00000  Uiso   1.00
H73    H     0.80020   0.81177   0.48271   0.00000  Uiso   1.00
H74    H     0.19982   0.81177   0.51728   0.00000  Uiso   1.00
C75    C     0.97818   0.67964   0.77481   0.00000  Uiso   1.00
C76    C     0.02183   0.67964   0.22517   0.00000  Uiso   1.00
C77    C     0.02183   0.32035   0.22517   0.00000  Uiso   1.00
C78    C     0.97818   0.32035   0.77481   0.00000  Uiso   1.00
C79    C     0.27439   0.32036   0.52372   0.00000  Uiso   1.00
C80    C     0.72563   0.32036   0.47626   0.00000  Uiso   1.00
C81    C     0.72563   0.67963   0.47626   0.00000  Uiso   1.00
C82    C     0.27439   0.67963   0.52372   0.00000  Uiso   1.00
H83    H     0.97641   0.80994   0.79490   0.00000  Uiso   1.00
H84    H     0.02360   0.80994   0.20509   0.00000  Uiso   1.00
H85    H     0.02360   0.19006   0.20509   0.00000  Uiso   1.00
H86    H     0.97641   0.19006   0.79490   0.00000  Uiso   1.00
H87    H     0.29452   0.19023   0.52567   0.00000  Uiso   1.00
H88    H     0.70550   0.19023   0.47432   0.00000  Uiso   1.00
H89    H     0.70550   0.80977   0.47432   0.00000  Uiso   1.00
H90    H     0.29452   0.80977   0.52567   0.00000  Uiso   1.00
C91    C     0.97619   0.50000   0.80251   0.00000  Uiso   1.00
C92    C     0.02382   0.50000   0.19747   0.00000  Uiso   1.00
C93    C     0.30202   0.50000   0.52595   0.00000  Uiso   1.00
C94    C     0.69800   0.50000   0.47404   0.00000  Uiso   1.00
O95    O     0.44508   0.50000   0.59257   0.00000  Uiso   1.00
O96    O     0.55494   0.50000   0.40741   0.00000  Uiso   1.00
H97    H     0.07720   0.50000   0.05605   0.00000  Uiso   1.00
H98    H     0.92282   0.50000   0.94394   0.00000  Uiso   1.00
C99    C     0.52112   0.50000   0.35854   0.00000  Uiso   1.00
C100   C     0.55096   0.50000   0.30823   0.00000  Uiso   1.00
C101   C     0.51642   0.50000   0.25844   0.00000  Uiso   1.00
C102   C     0.54563   0.50987   0.20582   0.00000  Uiso   1.00
O103   O     0.46203   0.50195   0.36030   0.00000  Uiso   1.00
H104   H     0.58450   0.39023   0.30314   0.00000  Uiso   1.00
H105   H     0.56759   0.65404   0.31485   0.00000  Uiso   1.00
H106   H     0.48282   0.60938   0.26348   0.00000  Uiso   1.00
H107   H     0.49989   0.34570   0.25180   0.00000  Uiso   1.00
O108   O     0.60464   0.52413   0.20530   0.00000  Uiso   1.00
O109   O     0.51518   0.51062   0.15478   0.00000  Uiso   1.00
H110   H     0.61835   0.52966   0.16405   0.00000  Uiso   1.00
C111   C     0.47890   0.50000   0.64144   0.00000  Uiso   1.00
C112   C     0.44906   0.50000   0.69175   0.00000  Uiso   1.00
C113   C     0.48360   0.50000   0.74155   0.00000  Uiso   1.00
C114   C     0.45439   0.50987   0.79416   0.00000  Uiso   1.00
O115   O     0.53799   0.50195   0.63969   0.00000  Uiso   1.00
H116   H     0.41551   0.39023   0.69685   0.00000  Uiso   1.00
H117   H     0.43243   0.65404   0.68513   0.00000  Uiso   1.00
H118   H     0.51720   0.60938   0.73650   0.00000  Uiso   1.00
H119   H     0.50012   0.34570   0.74819   0.00000  Uiso   1.00
O120   O     0.39538   0.52413   0.79468   0.00000  Uiso   1.00
O121   O     0.48483   0.51062   0.84520   0.00000  Uiso   1.00
H122   H     0.38167   0.52966   0.83593   0.00000  Uiso   1.00
N123   N     0.35464   0.50000   0.53073   0.00000  Uiso   1.00
N124   N     0.64538   0.50000   0.46925   0.00000  Uiso   1.00
N125   N     0.02805   0.50000   0.14475   0.00000  Uiso   1.00
N126   N     0.97197   0.50000   0.85523   0.00000  Uiso   1.00
N127   N     0.05438   0.50000   0.56422   0.00000  Uiso   1.00
N128   N     0.94564   0.50000   0.43576   0.00000  Uiso   1.00
H129   H     0.02970   0.50000   0.53508   0.00000  Uiso   1.00
H130   H     0.97031   0.50000   0.46490   0.00000  Uiso   1.00
loop_
_geom_bond_atom_site_label_1
_geom_bond_atom_site_label_2
_geom_bond_distance
_geom_bond_site_symmetry_2
_ccdc_geom_bond_type
C1     C13     1.417   .     S
C1     C5      1.414   .     S
C1     C18     1.421   .     S
C2     C17     1.421   .     S
C2     C7      1.414   .     S
C2     C14     1.417   .     S
C3     C9      1.410   .     S
C3     C15     1.415   .     S
C4     C16     1.415   .     S
C4     C11     1.410   .     S
C5     H6      1.027   .     S
C5     N124    1.353   .     S
C7     N123    1.353   .     S
C7     H8      1.027   .     S
C9     H10     1.026   .     S
C11    H12     1.026   .     S
C13    C17     1.405   .     S
C13    H21     1.023   .     S
C14    C18     1.405   .     S
C14    H22     1.023   .     S
C15    H23     1.024   .     S
C16    H24     1.024   .     S
C17    O95     1.351   .     S
C18    O96     1.351   .     S
C19    H97     1.024   .     S
C20    H98     1.024   .     S
C25    N127    1.351   .     S
C25    C29     1.396   .     S
C26    C30     1.396   .     S
C26    N128    1.351   .     S
C27    C31     1.396   .     S
C27    N127    1.351   .     S
C27    C53     1.414   .     S
C28    N128    1.351   .     S
C28    C32     1.396   .     S
C28    C54     1.414   .     S
C29    H33     1.022   .     S
C29    C31     1.378   .     S
C30    C32     1.378   .     S
C30    H34     1.022   .     S
C31    H35     1.022   .     S
C32    H36     1.022   .     S
N37    C42     1.356   .     S
N37    C39     1.356   .     S
N38    C41     1.356   .     S
N38    C40     1.356   .     S
C39    C43     1.396   .     S
C39    C51     1.415   .     S
C40    C52     1.415   .     S
C40    C44     1.396   .     S
C41    C45     1.396   .     S
C41    C53     1.415   .     S
C42    C54     1.415   .     S
C42    C46     1.396   .     S
C43    H47     1.022   .     S
C43    C46     1.375   .     S
C44    C45     1.375   .     S
C44    H48     1.022   .     S
C45    H49     1.022   .     S
C46    H50     1.022   .     S
C51    C55     1.413   .     S
C52    C56     1.413   .     S
C53    C57     1.413   .     S
C54    C58     1.413   .     S
C55    C59     1.413   .     S
C55    C62     1.413   .     S
C56    C61     1.413   .     S
C56    C60     1.413   .     S
C57    C63     1.413   .     S
C57    C66     1.413   .     S
C58    C64     1.413   .     S
C58    C65     1.413   .     S
C59    H67     1.023   .     S
C59    C75     1.409   .     S
C60    H68     1.023   .     S
C60    C76     1.409   .     S
C61    H69     1.023   .     S
C61    C77     1.409   .     S
C62    H70     1.023   .     S
C62    C78     1.409   .     S
C63    C79     1.409   .     S
C63    H71     1.023   .     S
C64    C80     1.409   .     S
C64    H72     1.023   .     S
C65    C81     1.409   .     S
C65    H73     1.023   .     S
C66    C82     1.409   .     S
C66    H74     1.023   .     S
C75    H83     1.021   .     S
C75    C91     1.408   .     S
C76    H84     1.021   .     S
C76    C92     1.408   .     S
C77    C92     1.408   .     S
C77    H85     1.021   .     S
C78    C91     1.408   .     S
C78    H86     1.021   .     S
C79    C93     1.407   .     S
C79    H87     1.021   .     S
C80    C94     1.407   .     S
C80    H88     1.021   .     S
C81    H89     1.021   .     S
C81    C94     1.407   .     S
C82    H90     1.021   .     S
C82    C93     1.407   .     S
C91    N126    1.348   .     S
C92    N125    1.348   .     S
C93    N123    1.348   .     S
C94    N124    1.348   .     S
O95    C111    1.510   .     S
O96    C99     1.510   .     S
C99    O103    1.510   .     S
C99    C100    1.496   .     S
C100   H104    1.142   .     S
C100   H105    1.139   .     S
C100   C101    1.540   .     S
C101   H107    1.139   .     S
C101   H106    1.142   .     S
C101   C102    1.540   .     S
C102   O109    1.510   .     S
C102   O108    1.510   .     S
O108   H110    1.111   .     S
C111   C112    1.496   .     S
C111   O115    1.510   .     S
C112   H117    1.139   .     S
C112   C113    1.540   .     S
C112   H116    1.142   .     S
C113   H119    1.139   .     S
C113   H118    1.142   .     S
C113   C114    1.540   .     S
C114   O120    1.510   .     S
C114   O121    1.510   .     S
O120   H122    1.111   .     S
N127   H129    0.970   .     S
N128   H130    0.970   .     S
