data_ICOF-1
_audit_creation_date              2016-12-13
_audit_creation_method            'Materials Studio'
_symmetry_space_group_name_H-M    'P1'
_symmetry_Int_Tables_number       1
_symmetry_cell_setting            triclinic
loop_
_symmetry_equiv_pos_as_xyz
  x,y,z
_cell_length_a                    5.0000
_cell_length_b                    25.0000
_cell_length_c                    25.0000
_cell_angle_alpha                 90.0000
_cell_angle_beta                  90.0000
_cell_angle_gamma                 90.0000
loop_
_atom_site_label
_atom_site_type_symbol
_atom_site_fract_x
_atom_site_fract_y
_atom_site_fract_z
_atom_site_U_iso_or_equiv
_atom_site_adp_type
_atom_site_occupancy
C1     C     0.50000   0.78083   0.36249   0.00000  Uiso   1.00
C2     C     0.50000   0.78083   0.63751   0.00000  Uiso   1.00
C3     C     0.50000   0.21916   0.63751   0.00000  Uiso   1.00
C4     C     0.50000   0.21916   0.36249   0.00000  Uiso   1.00
C5     C     0.50000   0.63751   0.78084   0.00000  Uiso   1.00
C6     C     0.50000   0.63751   0.21916   0.00000  Uiso   1.00
C7     C     0.50000   0.36248   0.21916   0.00000  Uiso   1.00
C8     C     0.50000   0.36248   0.78084   0.00000  Uiso   1.00
C9     C     0.50000   0.72695   0.38006   0.00000  Uiso   1.00
C10    C     0.50000   0.72695   0.61994   0.00000  Uiso   1.00
C11    C     0.50000   0.27304   0.61994   0.00000  Uiso   1.00
C12    C     0.50000   0.27304   0.38006   0.00000  Uiso   1.00
C13    C     0.50000   0.61994   0.72695   0.00000  Uiso   1.00
C14    C     0.50000   0.61994   0.27305   0.00000  Uiso   1.00
C15    C     0.50000   0.38005   0.27305   0.00000  Uiso   1.00
C16    C     0.50000   0.38005   0.72695   0.00000  Uiso   1.00
C17    C     0.50000   0.71475   0.43531   0.00000  Uiso   1.00
C18    C     0.50000   0.71475   0.56469   0.00000  Uiso   1.00
C19    C     0.50000   0.28524   0.56469   0.00000  Uiso   1.00
C20    C     0.50000   0.28524   0.43531   0.00000  Uiso   1.00
C21    C     0.50000   0.56468   0.71476   0.00000  Uiso   1.00
C22    C     0.50000   0.56468   0.28524   0.00000  Uiso   1.00
C23    C     0.50000   0.43531   0.28524   0.00000  Uiso   1.00
C24    C     0.50000   0.43531   0.71476   0.00000  Uiso   1.00
C25    C     0.50000   0.75730   0.47216   0.00000  Uiso   1.00
C26    C     0.50000   0.75730   0.52784   0.00000  Uiso   1.00
C27    C     0.50000   0.24269   0.52784   0.00000  Uiso   1.00
C28    C     0.50000   0.24269   0.47216   0.00000  Uiso   1.00
C29    C     0.50000   0.52784   0.75730   0.00000  Uiso   1.00
C30    C     0.50000   0.52784   0.24270   0.00000  Uiso   1.00
C31    C     0.50000   0.47215   0.24270   0.00000  Uiso   1.00
C32    C     0.50000   0.47215   0.75730   0.00000  Uiso   1.00
C33    C     0.50000   0.81050   0.45473   0.00000  Uiso   1.00
C34    C     0.50000   0.81050   0.54527   0.00000  Uiso   1.00
C35    C     0.50000   0.18949   0.54527   0.00000  Uiso   1.00
C36    C     0.50000   0.18949   0.45473   0.00000  Uiso   1.00
C37    C     0.50000   0.54527   0.81050   0.00000  Uiso   1.00
C38    C     0.50000   0.54527   0.18950   0.00000  Uiso   1.00
C39    C     0.50000   0.45472   0.18950   0.00000  Uiso   1.00
C40    C     0.50000   0.45472   0.81050   0.00000  Uiso   1.00
C41    C     0.50000   0.82292   0.39992   0.00000  Uiso   1.00
C42    C     0.50000   0.82292   0.60008   0.00000  Uiso   1.00
C43    C     0.50000   0.17708   0.60008   0.00000  Uiso   1.00
C44    C     0.50000   0.17708   0.39992   0.00000  Uiso   1.00
C45    C     0.50000   0.60007   0.82292   0.00000  Uiso   1.00
C46    C     0.50000   0.60007   0.17708   0.00000  Uiso   1.00
C47    C     0.50000   0.39992   0.17708   0.00000  Uiso   1.00
C48    C     0.50000   0.39992   0.82292   0.00000  Uiso   1.00
C49    C     0.50000   0.68892   0.34481   0.00000  Uiso   1.00
C50    C     0.50000   0.68892   0.65519   0.00000  Uiso   1.00
C51    C     0.50000   0.31107   0.65519   0.00000  Uiso   1.00
C52    C     0.50000   0.31107   0.34481   0.00000  Uiso   1.00
C53    C     0.50000   0.65519   0.68893   0.00000  Uiso   1.00
C54    C     0.50000   0.65519   0.31107   0.00000  Uiso   1.00
C55    C     0.50000   0.34480   0.31107   0.00000  Uiso   1.00
C56    C     0.50000   0.34480   0.68893   0.00000  Uiso   1.00
H57    H     0.50000   0.79004   0.31783   0.00000  Uiso   1.00
H58    H     0.50000   0.79004   0.68217   0.00000  Uiso   1.00
H59    H     0.50000   0.20995   0.68217   0.00000  Uiso   1.00
H60    H     0.50000   0.20995   0.31783   0.00000  Uiso   1.00
H61    H     0.50000   0.68217   0.79005   0.00000  Uiso   1.00
H62    H     0.50000   0.68217   0.20995   0.00000  Uiso   1.00
H63    H     0.50000   0.31782   0.20995   0.00000  Uiso   1.00
H64    H     0.50000   0.31782   0.79005   0.00000  Uiso   1.00
H65    H     0.50000   0.67128   0.44907   0.00000  Uiso   1.00
H66    H     0.50000   0.67128   0.55093   0.00000  Uiso   1.00
H67    H     0.50000   0.32871   0.55093   0.00000  Uiso   1.00
H68    H     0.50000   0.32871   0.44907   0.00000  Uiso   1.00
H69    H     0.50000   0.55093   0.67128   0.00000  Uiso   1.00
H70    H     0.50000   0.55093   0.32872   0.00000  Uiso   1.00
H71    H     0.50000   0.44906   0.32872   0.00000  Uiso   1.00
H72    H     0.50000   0.44906   0.67128   0.00000  Uiso   1.00
H73    H     0.50000   0.86620   0.38557   0.00000  Uiso   1.00
H74    H     0.50000   0.86620   0.61443   0.00000  Uiso   1.00
H75    H     0.50218   0.13841   0.61341   0.00000  Uiso   1.00
H76    H     0.49782   0.13841   0.38659   0.00000  Uiso   1.00
H77    H     0.50207   0.61338   0.86161   0.00000  Uiso   1.00
H78    H     0.49793   0.61338   0.13839   0.00000  Uiso   1.00
H79    H     0.50207   0.38661   0.13839   0.00000  Uiso   1.00
H80    H     0.49793   0.38661   0.86161   0.00000  Uiso   1.00
C81    C     0.50000   0.50000   0.84771   0.00000  Uiso   1.00
C82    C     0.50000   0.50000   0.15229   0.00000  Uiso   1.00
C83    C     0.50000   0.14479   0.50000   0.00000  Uiso   1.00
C84    C     0.50000   0.85518   0.50000   0.00000  Uiso   1.00
C85    C     0.29591   0.48790   0.10149   0.00000  Uiso   1.00
C86    C     0.70409   0.48790   0.89851   0.00000  Uiso   1.00
O87    O     0.34412   0.47166   0.04521   0.00000  Uiso   1.00
O88    O     0.65588   0.47166   0.95479   0.00000  Uiso   1.00
C89    C     0.29591   0.51209   0.89851   0.00000  Uiso   1.00
C90    C     0.70409   0.51209   0.10149   0.00000  Uiso   1.00
O91    O     0.34412   0.52834   0.95479   0.00000  Uiso   1.00
O92    O     0.65588   0.52834   0.04521   0.00000  Uiso   1.00
C93    C     0.29144   0.09738   0.51340   0.00000  Uiso   1.00
C94    C     0.70856   0.09738   0.48660   0.00000  Uiso   1.00
O95    O     0.34334   0.04275   0.52979   0.00000  Uiso   1.00
O96    O     0.65666   0.04275   0.47021   0.00000  Uiso   1.00
C97    C     0.29127   0.90259   0.48677   0.00000  Uiso   1.00
C98    C     0.70873   0.90259   0.51323   0.00000  Uiso   1.00
O99    O     0.34276   0.95722   0.47033   0.00000  Uiso   1.00
O100   O     0.65724   0.95722   0.52967   0.00000  Uiso   1.00
B101   B     0.50000   0.50000   0.00000   0.00000  Uiso   1.00
B102   B     0.50000   0.99998   0.50000   0.00000  Uiso   1.00
H103   H     0.16272   0.45769   0.11684   0.00000  Uiso   1.00
H104   H     0.83728   0.45769   0.88316   0.00000  Uiso   1.00
H105   H     0.20830   0.52666   0.09482   0.00000  Uiso   1.00
H106   H     0.79170   0.52666   0.90518   0.00000  Uiso   1.00
H107   H     0.20830   0.47333   0.90518   0.00000  Uiso   1.00
H108   H     0.79170   0.47333   0.09482   0.00000  Uiso   1.00
H109   H     0.16272   0.54230   0.88316   0.00000  Uiso   1.00
H110   H     0.83728   0.54230   0.11684   0.00000  Uiso   1.00
H111   H     0.20394   0.09071   0.47475   0.00000  Uiso   1.00
H112   H     0.79606   0.09071   0.52525   0.00000  Uiso   1.00
H113   H     0.16295   0.11430   0.54371   0.00000  Uiso   1.00
H114   H     0.83705   0.11430   0.45629   0.00000  Uiso   1.00
H115   H     0.20442   0.90927   0.52549   0.00000  Uiso   1.00
H116   H     0.79558   0.90927   0.47451   0.00000  Uiso   1.00
H117   H     0.16264   0.88559   0.45655   0.00000  Uiso   1.00
H118   H     0.83736   0.88559   0.54345   0.00000  Uiso   1.00
N119   N     1.18090  -0.35571   0.97400   0.00000  Uiso   1.00
C120   C     1.18026  -0.34753   1.03237   0.00000  Uiso   1.00
H121   H     1.24933  -0.39318   0.96661   0.00000  Uiso   1.00
C122   C     0.91858  -0.35002   0.94775   0.00000  Uiso   1.00
H123   H     1.31051  -0.32892   0.95717   0.00000  Uiso   1.00
H124   H     1.11131  -0.30732   1.04234   0.00000  Uiso   1.00
H125   H     1.38407  -0.35230   1.04705   0.00000  Uiso   1.00
H126   H     1.05259  -0.37699   1.05202   0.00000  Uiso   1.00
H127   H     0.77896  -0.38004   0.96272   0.00000  Uiso   1.00
H128   H     0.94493  -0.35592   0.90488   0.00000  Uiso   1.00
H129   H     0.83626  -0.31013   0.95441   0.00000  Uiso   1.00
N130   N    -0.00344   0.00096  -0.37811   0.00000  Uiso   1.00
C131   C     0.06066  -0.04708  -0.34639   0.00000  Uiso   1.00
H132   H    -0.16106  -0.00782  -0.40227   0.00000  Uiso   1.00
C133   C    -0.06713   0.04896  -0.34631   0.00000  Uiso   1.00
H134   H     0.15383   0.00974  -0.40235   0.00000  Uiso   1.00
H135   H     0.24331  -0.04092  -0.32328   0.00000  Uiso   1.00
H136   H     0.09120  -0.08054  -0.37353   0.00000  Uiso   1.00
H137   H    -0.10365  -0.05709  -0.31943   0.00000  Uiso   1.00
H138   H    -0.24935   0.04275  -0.32307   0.00000  Uiso   1.00
H139   H    -0.09829   0.08243  -0.37340   0.00000  Uiso   1.00
H140   H     0.09764   0.05896  -0.31945   0.00000  Uiso   1.00
loop_
_geom_bond_atom_site_label_1
_geom_bond_atom_site_label_2
_geom_bond_distance
_geom_bond_site_symmetry_2
_ccdc_geom_bond_type
C1     C41     1.408   .     S
C1     C9      1.417   .     S
C1     H57     1.140   .     S
C2     C42     1.408   .     S
C2     C10     1.417   .     S
C2     H58     1.140   .     S
C3     C11     1.417   .     S
C3     C43     1.408   .     S
C3     H59     1.140   .     S
C4     C12     1.417   .     S
C4     C44     1.408   .     S
C4     H60     1.140   .     S
C5     C45     1.408   .     S
C5     H61     1.140   .     S
C5     C13     1.417   .     S
C6     C14     1.417   .     S
C6     H62     1.140   .     S
C6     C46     1.408   .     S
C7     C15     1.417   .     S
C7     C47     1.408   .     S
C7     H63     1.140   .     S
C8     C48     1.408   .     S
C8     H64     1.140   .     S
C8     C16     1.417   .     S
C9     C49     1.296   .     S
C9     C17     1.415   .     S
C10    C18     1.415   .     S
C10    C50     1.296   .     S
C11    C19     1.415   .     S
C11    C51     1.296   .     S
C12    C52     1.296   .     S
C12    C20     1.415   .     S
C13    C21     1.415   .     S
C13    C53     1.296   .     S
C14    C54     1.296   .     S
C14    C22     1.415   .     S
C15    C23     1.415   .     S
C15    C55     1.296   .     S
C16    C24     1.415   .     S
C16    C56     1.296   .     S
C17    C25     1.407   .     S
C17    H65     1.140   .     S
C18    C26     1.407   .     S
C18    H66     1.140   .     S
C19    H67     1.140   .     S
C19    C27     1.407   .     S
C20    H68     1.140   .     S
C20    C28     1.407   .     S
C21    C29     1.407   .     S
C21    H69     1.140   .     S
C22    H70     1.140   .     S
C22    C30     1.407   .     S
C23    H71     1.140   .     S
C23    C31     1.407   .     S
C24    C32     1.407   .     S
C24    H72     1.140   .     S
C25    C33     1.399   .     S
C25    C26     1.392   .     S
C26    C34     1.399   .     S
C27    C35     1.399   .     S
C27    C28     1.392   .     S
C28    C36     1.399   .     S
C29    C32     1.392   .     S
C29    C37     1.399   .     S
C30    C31     1.392   .     S
C30    C38     1.399   .     S
C31    C39     1.399   .     S
C32    C40     1.399   .     S
C33    C41     1.405   .     S
C33    C84     1.590   .     S
C34    C84     1.590   .     S
C34    C42     1.405   .     S
C35    C83     1.591   .     S
C35    C43     1.405   .     S
C36    C44     1.405   .     S
C36    C83     1.591   .     S
C37    C81     1.465   .     S
C37    C45     1.405   .     S
C38    C82     1.465   .     S
C38    C46     1.405   .     S
C39    C82     1.465   .     S
C39    C47     1.405   .     S
C40    C81     1.465   .     S
C40    C48     1.405   .     S
C41    H73     1.140   .     S
C42    H74     1.140   .     S
C43    H75     1.023   .     S
C44    H76     1.023   .     S
C45    H77     1.023   .     S
C46    H78     1.023   .     S
C47    H79     1.023   .     S
C48    H80     1.023   .     S
C49    C54     1.193   .     S
C50    C53     1.193   .     S
C51    C56     1.193   .     S
C52    C55     1.193   .     S
C81    C89     1.657   .     S
C81    C86     1.657   .     S
C82    C90     1.657   .     S
C82    C85     1.657   .     S
C83    C93     1.614   .     S
C83    C94     1.614   .     S
C84    C98     1.613   .     S
C84    C97     1.613   .     S
C85    H103    1.078   .     S
C85    H105    1.076   .     S
C85    O87     1.484   .     S
C86    H104    1.078   .     S
C86    H106    1.076   .     S
C86    O88     1.484   .     S
O87    B101    1.545   .     S
C89    H109    1.078   .     S
C89    H107    1.076   .     S
C89    O91     1.484   .     S
C90    H110    1.078   .     S
C90    H108    1.076   .     S
C90    O92     1.484   .     S
O92    B101    1.545   .     S
C93    H113    1.080   .     S
C93    O95     1.449   .     S
C93    H111    1.074   .     S
C94    H114    1.080   .     S
C94    O96     1.449   .     S
C94    H112    1.074   .     S
C97    H117    1.080   .     S
C97    O99     1.449   .     S
C97    H115    1.074   .     S
C98    H118    1.080   .     S
C98    O100    1.449   .     S
C98    H116    1.074   .     S
O99    B102    1.520   .     S
O100   B102    1.520   .     S
N119   H121    1.014   .     S
N119   H123    1.022   .     S
N119   C122    1.473   .     S
N119   C120    1.474   .     S
C120   H124    1.092   .     S
C120   H125    1.090   .     S
C120   H126    1.091   .     S
C122   H129    1.092   .     S
C122   H127    1.091   .     S
C122   H128    1.090   .     S
N130   H134    1.017   .     S
N130   H132    1.017   .     S
N130   C133    1.474   .     S
N130   C131    1.474   .     S
C131   H135    1.092   .     S
C131   H137    1.092   .     S
C131   H136    1.088   .     S
C133   H138    1.092   .     S
C133   H140    1.092   .     S
C133   H139    1.088   .     S
