data_iPrTAPB-TFPB
_audit_creation_date              2016-12-13
_audit_creation_method            'Materials Studio'
_symmetry_space_group_name_H-M    'P1'
_symmetry_Int_Tables_number       1
_symmetry_cell_setting            triclinic
loop_
_symmetry_equiv_pos_as_xyz
  x,y,z
_cell_length_a                    26.4636
_cell_length_b                    26.4636
_cell_length_c                    4.2000
_cell_angle_alpha                 90.0000
_cell_angle_beta                  90.0000
_cell_angle_gamma                 120.0000
loop_
_atom_site_label
_atom_site_type_symbol
_atom_site_fract_x
_atom_site_fract_y
_atom_site_fract_z
_atom_site_U_iso_or_equiv
_atom_site_adp_type
_atom_site_occupancy
C1     C     0.73045   0.36594   0.50000   0.00000  Uiso   1.00
C2     C     0.63406   0.36451   0.50000   0.00000  Uiso   1.00
C3     C     0.63550   0.26955   0.50000   0.00000  Uiso   1.00
C4     C     0.69738   0.30398   0.50000   0.00000  Uiso   1.00
C5     C     0.69602   0.39340   0.50000   0.00000  Uiso   1.00
C6     C     0.60661   0.30263   0.50000   0.00000  Uiso   1.00
C7     C     0.27005   0.64200   0.50000   0.00000  Uiso   1.00
C8     C     0.35800   0.62805   0.50000   0.00000  Uiso   1.00
C9     C     0.37195   0.72995   0.50000   0.00000  Uiso   1.00
C10    C     0.31011   0.70302   0.50000   0.00000  Uiso   1.00
C11    C     0.29698   0.60709   0.50000   0.00000  Uiso   1.00
C12    C     0.39291   0.68989   0.50000   0.00000  Uiso   1.00
H13    H     0.72055   0.27745   0.50000   0.00000  Uiso   1.00
H14    H     0.72255   0.44310   0.50000   0.00000  Uiso   1.00
H15    H     0.55690   0.27945   0.50000   0.00000  Uiso   1.00
H16    H     0.29329   0.73515   0.50000   0.00000  Uiso   1.00
H17    H     0.26485   0.55814   0.50000   0.00000  Uiso   1.00
H18    H     0.44186   0.70671   0.50000   0.00000  Uiso   1.00
C19    C     0.20740   0.61757   0.50000   0.00000  Uiso   1.00
C20    C     0.38243   0.58982   0.50000   0.00000  Uiso   1.00
C21    C     0.41018   0.79261   0.50000   0.00000  Uiso   1.00
C22    C     0.79359   0.39823   0.50000   0.00000  Uiso   1.00
C23    C     0.60177   0.39537   0.50000   0.00000  Uiso   1.00
C24    C     0.60463   0.20641   0.50000   0.00000  Uiso   1.00
C25    C     0.18019   0.65255   0.50000   0.00000  Uiso   1.00
C26    C     0.34745   0.52763   0.50000   0.00000  Uiso   1.00
C27    C     0.47237   0.81982   0.50000   0.00000  Uiso   1.00
C28    C     0.82833   0.37074   0.50000   0.00000  Uiso   1.00
C29    C     0.62926   0.45759   0.50000   0.00000  Uiso   1.00
C30    C     0.54241   0.17167   0.50000   0.00000  Uiso   1.00
C31    C     0.63357   0.17303   0.50000   0.00000  Uiso   1.00
C32    C     0.82698   0.46054   0.50000   0.00000  Uiso   1.00
C33    C     0.53946   0.36644   0.50000   0.00000  Uiso   1.00
C34    C     0.38922   0.83298   0.50000   0.00000  Uiso   1.00
C35    C     0.16702   0.55625   0.50000   0.00000  Uiso   1.00
C36    C     0.44376   0.61078   0.50000   0.00000  Uiso   1.00
C37    C     0.11932   0.62922   0.50000   0.00000  Uiso   1.00
C38    C     0.37078   0.49010   0.50000   0.00000  Uiso   1.00
C39    C     0.50990   0.88068   0.50000   0.00000  Uiso   1.00
C40    C     0.88971   0.40189   0.50000   0.00000  Uiso   1.00
C41    C     0.59811   0.48782   0.50000   0.00000  Uiso   1.00
C42    C     0.51218   0.11029   0.50000   0.00000  Uiso   1.00
C43    C     0.60381   0.11165   0.50000   0.00000  Uiso   1.00
C44    C     0.88835   0.49216   0.50000   0.00000  Uiso   1.00
C45    C     0.50785   0.39619   0.50000   0.00000  Uiso   1.00
C46    C     0.42605   0.89393   0.50000   0.00000  Uiso   1.00
C47    C     0.10607   0.53212   0.50000   0.00000  Uiso   1.00
C48    C     0.46788   0.57395   0.50000   0.00000  Uiso   1.00
C49    C     0.08117   0.56841   0.50000   0.00000  Uiso   1.00
C50    C     0.43159   0.51276   0.50000   0.00000  Uiso   1.00
C51    C     0.48724   0.91883   0.50000   0.00000  Uiso   1.00
C52    C     0.92085   0.46314   0.50000   0.00000  Uiso   1.00
C53    C     0.53686   0.45771   0.50000   0.00000  Uiso   1.00
C54    C     0.54230   0.07915   0.50000   0.00000  Uiso   1.00
C55    C     0.02058   0.54646   0.50000   0.00000  Uiso   1.00
C56    C     0.45354   0.47412   0.50000   0.00000  Uiso   1.00
C57    C     0.52588   0.97942   0.50000   0.00000  Uiso   1.00
N58    N     0.97991   0.48920   0.50000   0.00000  Uiso   1.00
N59    N     0.51080   0.49071   0.50000   0.00000  Uiso   1.00
N60    N     0.50929   0.02009   0.50000   0.00000  Uiso   1.00
H61    H     0.20809   0.70216   0.50000   0.00000  Uiso   1.00
H62    H     0.29784   0.50593   0.50000   0.00000  Uiso   1.00
H63    H     0.49408   0.79191   0.50000   0.00000  Uiso   1.00
H64    H     0.80641   0.32111   0.50000   0.00000  Uiso   1.00
H65    H     0.67889   0.48530   0.50000   0.00000  Uiso   1.00
H66    H     0.51470   0.19359   0.50000   0.00000  Uiso   1.00
H67    H     0.68327   0.19610   0.50000   0.00000  Uiso   1.00
H68    H     0.80390   0.48716   0.50000   0.00000  Uiso   1.00
H69    H     0.51284   0.31674   0.50000   0.00000  Uiso   1.00
H70    H     0.34029   0.81626   0.50000   0.00000  Uiso   1.00
H71    H     0.18374   0.52403   0.50000   0.00000  Uiso   1.00
H72    H     0.47597   0.65971   0.50000   0.00000  Uiso   1.00
H73    H     0.10043   0.65962   0.50000   0.00000  Uiso   1.00
H74    H     0.34038   0.44081   0.50000   0.00000  Uiso   1.00
H75    H     0.55919   0.89958   0.50000   0.00000  Uiso   1.00
H76    H     0.40651   0.92377   0.50000   0.00000  Uiso   1.00
H77    H     0.07623   0.48274   0.50000   0.00000  Uiso   1.00
H78    H     0.51727   0.59350   0.50000   0.00000  Uiso   1.00
H79    H     0.00279   0.57780   0.50000   0.00000  Uiso   1.00
H80    H     0.42221   0.42499   0.50000   0.00000  Uiso   1.00
H81    H     0.57501   0.99721   0.50000   0.00000  Uiso   1.00
C82    C     0.63120   0.55502   0.50000   0.00000  Uiso   1.00
C83    C     0.69736   0.57793   0.50000   0.00000  Uiso   1.00
C84    C     0.61479   0.57708   0.80004   0.00000  Uiso   1.00
H85    H     0.61893   0.57147   0.27878   0.00000  Uiso   1.00
H86    H     0.70952   0.56149   0.72168   0.00000  Uiso   1.00
H87    H     0.72191   0.62767   0.50015   0.00000  Uiso   1.00
H88    H     0.70958   0.56153   0.27839   0.00000  Uiso   1.00
H89    H     0.62714   0.56069   1.02122   0.00000  Uiso   1.00
H90    H     0.56580   0.56009   0.80079   0.00000  Uiso   1.00
H91    H     0.63931   0.62682   0.80012   0.00000  Uiso   1.00
C92    C     0.44066   0.36158   0.50000   0.00000  Uiso   1.00
C93    C     0.41941   0.29576   0.50000   0.00000  Uiso   1.00
C94    C     0.41777   0.37707   0.19997   0.00000  Uiso   1.00
H95    H     0.42359   0.37317   0.72123   0.00000  Uiso   1.00
H96    H     0.43646   0.28428   0.27833   0.00000  Uiso   1.00
H97    H     0.36968   0.27008   0.49986   0.00000  Uiso   1.00
H98    H     0.43642   0.28422   0.72162   0.00000  Uiso   1.00
H99    H     0.43478   0.36542  -0.02121   0.00000  Uiso   1.00
H100   H     0.43353   0.42582   0.19922   0.00000  Uiso   1.00
H101   H     0.36804   0.35143   0.19989   0.00000  Uiso   1.00
C102   C     0.44499   0.07619   0.50000   0.00000  Uiso   1.00
C103   C     0.42208   0.11943   0.50000   0.00000  Uiso   1.00
C104   C     0.42292   0.03771   0.80004   0.00000  Uiso   1.00
H105   H     0.42853   0.04746   0.27878   0.00000  Uiso   1.00
H106   H     0.43851   0.14803   0.72168   0.00000  Uiso   1.00
H107   H     0.37234   0.09424   0.50015   0.00000  Uiso   1.00
H108   H     0.43848   0.14806   0.27839   0.00000  Uiso   1.00
H109   H     0.43931   0.06645   1.02122   0.00000  Uiso   1.00
H110   H     0.43991   0.00571   0.80079   0.00000  Uiso   1.00
H111   H     0.37318   0.01249   0.80012   0.00000  Uiso   1.00
C112   C     0.63842   0.07908   0.50000   0.00000  Uiso   1.00
C113   C     0.70424   0.12365   0.50000   0.00000  Uiso   1.00
C114   C     0.62293   0.04070   0.19997   0.00000  Uiso   1.00
H115   H     0.62683   0.05042   0.72123   0.00000  Uiso   1.00
H116   H     0.71572   0.15217   0.27833   0.00000  Uiso   1.00
H117   H     0.72992   0.09959   0.49986   0.00000  Uiso   1.00
H118   H     0.71578   0.15220   0.72162   0.00000  Uiso   1.00
H119   H     0.63459   0.06937  -0.02121   0.00000  Uiso   1.00
H120   H     0.57418   0.00771   0.19922   0.00000  Uiso   1.00
H121   H     0.64857   0.01661   0.19989   0.00000  Uiso   1.00
C122   C     0.92381   0.36880   0.50000   0.00000  Uiso   1.00
C123   C     0.88057   0.30264   0.50000   0.00000  Uiso   1.00
C124   C     0.96229   0.38521   0.80004   0.00000  Uiso   1.00
H125   H     0.95254   0.38107   0.27878   0.00000  Uiso   1.00
H126   H     0.85197   0.29048   0.72168   0.00000  Uiso   1.00
H127   H     0.90576   0.27809   0.50015   0.00000  Uiso   1.00
H128   H     0.85194   0.29042   0.27839   0.00000  Uiso   1.00
H129   H     0.93355   0.37287   1.02122   0.00000  Uiso   1.00
H130   H     0.99429   0.43420   0.80079   0.00000  Uiso   1.00
H131   H     0.98751   0.36069   0.80012   0.00000  Uiso   1.00
C132   C     0.92093   0.55934   0.50000   0.00000  Uiso   1.00
C133   C     0.87635   0.58059   0.50000   0.00000  Uiso   1.00
C134   C     0.95930   0.58223   0.19997   0.00000  Uiso   1.00
H135   H     0.94958   0.57641   0.72123   0.00000  Uiso   1.00
H136   H     0.84783   0.56354   0.27833   0.00000  Uiso   1.00
H137   H     0.90041   0.63033   0.49986   0.00000  Uiso   1.00
H138   H     0.84780   0.56358   0.72162   0.00000  Uiso   1.00
H139   H     0.93063   0.56522  -0.02121   0.00000  Uiso   1.00
H140   H     0.99229   0.56647   0.19922   0.00000  Uiso   1.00
H141   H     0.98339   0.63196   0.19989   0.00000  Uiso   1.00
loop_
_geom_bond_atom_site_label_1
_geom_bond_atom_site_label_2
_geom_bond_distance
_geom_bond_site_symmetry_2
_ccdc_geom_bond_type
C1     C22     1.447   .     S
C1     C5      1.421   .     S
C1     C4      1.421   .     S
C2     C23     1.447   .     S
C2     C5      1.421   .     S
C2     C6      1.421   .     S
C3     C6      1.421   .     S
C3     C4      1.421   .     S
C3     C24     1.447   .     S
C4     H13     1.140   .     S
C5     H14     1.140   .     S
C6     H15     1.140   .     S
C7     C10     1.421   .     S
C7     C11     1.421   .     S
C7     C19     1.447   .     S
C8     C12     1.421   .     S
C8     C11     1.421   .     S
C8     C20     1.447   .     S
C9     C10     1.421   .     S
C9     C21     1.447   .     S
C9     C12     1.421   .     S
C10    H16     1.140   .     S
C11    H17     1.140   .     S
C12    H18     1.140   .     S
C19    C35     1.429   .     S
C19    C25     1.429   .     S
C20    C36     1.429   .     S
C20    C26     1.429   .     S
C21    C27     1.429   .     S
C21    C34     1.429   .     S
C22    C32     1.429   .     S
C22    C28     1.429   .     S
C23    C29     1.429   .     S
C23    C33     1.429   .     S
C24    C30     1.429   .     S
C24    C31     1.429   .     S
C25    C37     1.407   .     S
C25    H61     1.140   .     S
C26    C38     1.407   .     S
C26    H62     1.140   .     S
C27    H63     1.140   .     S
C27    C39     1.407   .     S
C28    H64     1.140   .     S
C28    C40     1.407   .     S
C29    C41     1.407   .     S
C29    H65     1.140   .     S
C30    H66     1.140   .     S
C30    C42     1.407   .     S
C31    H67     1.140   .     S
C31    C43     1.407   .     S
C32    H68     1.140   .     S
C32    C44     1.407   .     S
C33    H69     1.140   .     S
C33    C45     1.407   .     S
C34    H70     1.140   .     S
C34    C46     1.407   .     S
C35    H71     1.140   .     S
C35    C47     1.407   .     S
C36    C48     1.407   .     S
C36    H72     1.140   .     S
C37    H73     1.140   .     S
C37    C49     1.409   .     S
C38    C50     1.409   .     S
C38    H74     1.140   .     S
C39    H75     1.140   .     S
C39    C51     1.409   .     S
C40    C52     1.404   .     S
C40    C122    1.540   .     S
C41    C82     1.540   .     S
C41    C53     1.404   .     S
C42    C54     1.404   .     S
C42    C102    1.540   .     S
C43    C112    1.540   .     S
C43    C54     1.410   .     S
C44    C132    1.540   .     S
C44    C52     1.410   .     S
C45    C53     1.410   .     S
C45    C92     1.540   .     S
C46    H76     1.140   .     S
C46    C51     1.410   .     S
C47    H77     1.140   .     S
C47    C49     1.410   .     S
C48    H78     1.140   .     S
C48    C50     1.410   .     S
C49    C55     1.406   .     S
C50    C56     1.406   .     S
C51    C57     1.406   .     S
C52    N58     1.357   .     S
C53    N59     1.357   .     S
C54    N60     1.357   .     S
C55    H79     1.140   .     S
C56    N59     1.350   .     S
C56    H80     1.140   .     S
C57    H81     1.140   .     S
C82    C84     1.540   .     S
C82    C83     1.540   .     S
C82    H85     1.140   .     S
C83    H86     1.140   .     S
C83    H87     1.140   .     S
C83    H88     1.140   .     S
C84    H90     1.140   .     S
C84    H91     1.140   .     S
C84    H89     1.140   .     S
C92    H95     1.140   .     S
C92    C93     1.540   .     S
C92    C94     1.540   .     S
C93    H98     1.140   .     S
C93    H97     1.140   .     S
C93    H96     1.140   .     S
C94    H101    1.140   .     S
C94    H100    1.140   .     S
C94    H99     1.140   .     S
C102   C104    1.540   .     S
C102   C103    1.540   .     S
C102   H105    1.140   .     S
C103   H106    1.140   .     S
C103   H107    1.140   .     S
C103   H108    1.140   .     S
C104   H110    1.140   .     S
C104   H111    1.140   .     S
C104   H109    1.140   .     S
C112   C113    1.540   .     S
C112   H115    1.140   .     S
C112   C114    1.540   .     S
C113   H118    1.140   .     S
C113   H117    1.140   .     S
C113   H116    1.140   .     S
C114   H121    1.140   .     S
C114   H120    1.140   .     S
C114   H119    1.140   .     S
C122   C124    1.540   .     S
C122   C123    1.540   .     S
C122   H125    1.140   .     S
C123   H126    1.140   .     S
C123   H127    1.140   .     S
C123   H128    1.140   .     S
C124   H131    1.140   .     S
C124   H130    1.140   .     S
C124   H129    1.140   .     S
C132   H135    1.140   .     S
C132   C133    1.540   .     S
C132   C134    1.540   .     S
C133   H138    1.140   .     S
C133   H137    1.140   .     S
C133   H136    1.140   .     S
C134   H140    1.140   .     S
C134   H141    1.140   .     S
C134   H139    1.140   .     S
