data_PCTF-4
_audit_creation_date              2016-12-13
_audit_creation_method            'Materials Studio'
_symmetry_space_group_name_H-M    'P1'
_symmetry_Int_Tables_number       1
_symmetry_cell_setting            triclinic
loop_
_symmetry_equiv_pos_as_xyz
  x,y,z
_cell_length_a                    4.2271
_cell_length_b                    26.9780
_cell_length_c                    27.2511
_cell_angle_alpha                 60.3310
_cell_angle_beta                  89.6976
_cell_angle_gamma                 89.3890
loop_
_atom_site_label
_atom_site_type_symbol
_atom_site_fract_x
_atom_site_fract_y
_atom_site_fract_z
_atom_site_U_iso_or_equiv
_atom_site_adp_type
_atom_site_occupancy
C1     C    -0.52543   1.23485  -1.38117   0.00000  Uiso   1.00
C2     C    -0.52049   1.14639  -1.38072   0.00000  Uiso   1.00
C3     C    -0.52408   1.23387  -1.46813   0.00000  Uiso   1.00
N4     N    -0.52353   1.26208  -1.43844   0.00000  Uiso   1.00
N5     N    -0.52396   1.17598  -1.43801   0.00000  Uiso   1.00
N6     N    -0.52285   1.17703  -1.35353   0.00000  Uiso   1.00
C7     C    -0.52963   1.26525  -1.35118   0.00000  Uiso   1.00
C8     C    -0.51066   1.08602  -1.35031   0.00000  Uiso   1.00
C9     C    -0.52365   1.26360  -1.52801   0.00000  Uiso   1.00
C10    C    -0.42969   1.32271  -1.37677   0.00000  Uiso   1.00
C11    C    -0.60383   1.05337  -1.37544   0.00000  Uiso   1.00
C12    C    -0.59505   1.23574  -1.55910   0.00000  Uiso   1.00
C13    C    -0.45122   1.32248  -1.55931   0.00000  Uiso   1.00
C14    C    -0.40381   1.05594  -1.29358   0.00000  Uiso   1.00
C15    C    -0.63394   1.23929  -1.29434   0.00000  Uiso   1.00
C16    C    -0.63692   1.26933  -1.26432   0.00000  Uiso   1.00
C17    C    -0.38794   0.99594  -1.26346   0.00000  Uiso   1.00
C18    C    -0.45048   1.35209  -1.61877   0.00000  Uiso   1.00
C19    C    -0.59526   1.26532  -1.61859   0.00000  Uiso   1.00
C20    C    -0.58950   0.99332  -1.34526   0.00000  Uiso   1.00
C21    C    -0.43105   1.35272  -1.34670   0.00000  Uiso   1.00
C22    C    -0.48808   1.50885  -1.10644   0.00000  Uiso   1.00
C23    C    -0.45095   0.59756  -1.10710   0.00000  Uiso   1.00
C24    C    -0.67960   1.45995  -1.08853   0.00000  Uiso   1.00
C25    C    -0.26210   0.62907  -1.08945   0.00000  Uiso   1.00
C26    C    -0.68908   1.42880  -1.11746   0.00000  Uiso   1.00
C27    C    -0.25756   0.68920  -1.11833   0.00000  Uiso   1.00
C28    C    -0.51927   1.44751  -1.16819   0.00000  Uiso   1.00
C29    C    -0.43120   0.72076  -1.16870   0.00000  Uiso   1.00
C30    C    -0.33718   1.49727  -1.18842   0.00000  Uiso   1.00
C31    C    -0.60539   0.69064  -1.18925   0.00000  Uiso   1.00
C32    C    -0.31847   1.52618  -1.15745   0.00000  Uiso   1.00
C33    C    -0.61936   0.63073  -1.15834   0.00000  Uiso   1.00
H34    H    -0.81545   1.44630  -1.05336   0.00000  Uiso   1.00
H35    H    -0.12614   0.60781  -1.05430   0.00000  Uiso   1.00
H36    H    -0.82329   1.39271  -1.10160   0.00000  Uiso   1.00
H37    H    -0.12428   0.70971  -1.10269   0.00000  Uiso   1.00
H38    H    -0.21274   1.51234  -1.22532   0.00000  Uiso   1.00
H39    H    -0.72725   0.71213  -1.22651   0.00000  Uiso   1.00
H40    H    -0.17704   1.56087  -1.17294   0.00000  Uiso   1.00
H41    H    -0.75684   0.61121  -1.17402   0.00000  Uiso   1.00
C42    C    -0.37070   1.45172  -0.98427   0.00000  Uiso   1.00
C43    C    -0.58235   0.53446  -0.98562   0.00000  Uiso   1.00
C44    C    -0.39300   1.42130  -0.92485   0.00000  Uiso   1.00
C45    C    -0.57950   0.50574  -0.92615   0.00000  Uiso   1.00
H46    H    -0.28016   1.43026  -1.00317   0.00000  Uiso   1.00
H47    H    -0.66311   0.57545  -1.00543   0.00000  Uiso   1.00
H48    H    -0.33148   1.37917  -0.90561   0.00000  Uiso   1.00
H49    H    -0.63807   0.52964  -0.90792   0.00000  Uiso   1.00
C50    C    -0.52745   1.41733  -1.19806   0.00000  Uiso   1.00
C51    C    -0.43539   0.78086  -1.19787   0.00000  Uiso   1.00
C52    C    -0.38798   1.36261  -1.17570   0.00000  Uiso   1.00
C53    C    -0.57837   0.81137  -1.17362   0.00000  Uiso   1.00
C54    C    -0.38842   1.33319  -1.20577   0.00000  Uiso   1.00
C55    C    -0.59336   0.87154  -1.20363   0.00000  Uiso   1.00
C56    C    -0.53225   1.35643  -1.25957   0.00000  Uiso   1.00
C57    C    -0.46237   0.90330  -1.25857   0.00000  Uiso   1.00
C58    C    -0.67334   1.41135  -1.28216   0.00000  Uiso   1.00
C59    C    -0.31362   0.87214  -1.28160   0.00000  Uiso   1.00
C60    C    -0.66929   1.44147  -1.25210   0.00000  Uiso   1.00
C61    C    -0.30256   0.81267  -1.25230   0.00000  Uiso   1.00
H62    H    -0.67619   0.78988  -0.13408   0.00000  Uiso   1.00
H63    H    -0.70418   0.89212  -0.18515   0.00000  Uiso   1.00
H64    H    -0.78220   1.42981  -1.32082   0.00000  Uiso   1.00
H65    H    -0.77170   1.48121  -1.26988   0.00000  Uiso   1.00
C66    C    -0.69400   0.43488  -0.79981   0.00000  Uiso   1.00
C67    C    -0.33788   1.36480  -0.79957   0.00000  Uiso   1.00
C68    C    -0.69596   0.40521  -0.74070   0.00000  Uiso   1.00
C69    C    -0.34673   1.33390  -0.74004   0.00000  Uiso   1.00
H70    H    -0.19249   1.34856  -0.81827   0.00000  Uiso   1.00
H71    H    -0.21578   1.29702  -0.71917   0.00000  Uiso   1.00
N72    N    -0.46981   0.53834  -1.07669   0.00000  Uiso   1.00
C73    C    -0.47395   0.50922  -1.01768   0.00000  Uiso   1.00
C74    C    -0.49652   0.44717  -0.89299   0.00000  Uiso   1.00
C75    C    -0.51197   0.41657  -0.83235   0.00000  Uiso   1.00
C76    C    -0.52383   0.35391  -0.70916   0.00000  Uiso   1.00
H77    H    -0.35167   1.34319  -1.41772   0.00000  Uiso   1.00
H78    H    -0.68484   1.07317  -1.41619   0.00000  Uiso   1.00
H79    H    -0.64989   1.19329  -1.53850   0.00000  Uiso   1.00
H80    H    -0.39609   1.34455  -1.53894   0.00000  Uiso   1.00
H81    H    -0.33277   1.07767  -1.27367   0.00000  Uiso   1.00
H82    H    -0.71110   1.19801  -1.27418   0.00000  Uiso   1.00
C83    C    -0.53382   1.32646  -1.28991   0.00000  Uiso   1.00
C84    C    -0.47994   0.96358  -1.28882   0.00000  Uiso   1.00
C85    C    -0.52360   1.32405  -1.64942   0.00000  Uiso   1.00
H86    H    -0.35306   1.39394  -1.36656   0.00000  Uiso   1.00
H87    H    -0.66111   0.97130  -1.36490   0.00000  Uiso   1.00
H88    H    -0.71637   1.24912  -1.22339   0.00000  Uiso   1.00
H89    H    -0.30528   0.97602  -1.22282   0.00000  Uiso   1.00
H90    H    -0.65066   1.24362  -1.63932   0.00000  Uiso   1.00
H91    H    -0.39417   1.39455  -1.63976   0.00000  Uiso   1.00
N92    N    -0.88634   0.48061  -0.81829   0.00000  Uiso   1.00
S93    S    -1.05142   0.49148  -0.76802   0.00000  Uiso   1.00
N94    N    -0.87879   0.43067  -0.71907   0.00000  Uiso   1.00
N95    N    -0.23705   0.33320  -0.12616   0.00000  Uiso   1.00
S96    S    -0.09073   0.26999  -0.11467   0.00000  Uiso   1.00
N97    N    -0.23444   0.28308  -0.17759   0.00000  Uiso   1.00
N98    N    -0.16575   0.89345  -0.33157   0.00000  Uiso   1.00
S99    S    -0.01489   0.84308  -0.34464   0.00000  Uiso   1.00
N100   N    -0.15156   0.79197  -0.28177   0.00000  Uiso   1.00
loop_
_geom_bond_atom_site_label_1
_geom_bond_atom_site_label_2
_geom_bond_distance
_geom_bond_site_symmetry_2
_ccdc_geom_bond_type
C1     C7      1.416   .     S
C1     N6      1.356   .     S
C1     N4      1.357   .     S
C2     N6      1.356   .     S
C2     C8      1.416   .     S
C2     N5      1.357   .     S
C3     N5      1.358   .     S
C3     N4      1.358   .     S
C3     C9      1.418   .     S
C7     C10     1.417   .     S
C7     C15     1.418   .     S
C8     C11     1.417   .     S
C8     C14     1.418   .     S
C9     C12     1.418   .     S
C9     C13     1.418   .     S
C10    C21     1.408   .     S
C10    H77     1.024   .     S
C11    C20     1.408   .     S
C11    H78     1.024   .     S
C12    H79     1.024   .     S
C12    C19     1.409   .     S
C13    H80     1.024   .     S
C13    C18     1.408   .     S
C14    C17     1.408   .     S
C14    H81     1.024   .     S
C15    H82     1.024   .     S
C15    C16     1.408   .     S
C16    H88     1.026   .     S
C16    C83     1.414   .     S
C17    H89     1.024   .     S
C17    C84     1.414   .     S
C18    H91     1.026   .     S
C18    C85     1.414   .     S
C19    C85     1.413   .     S
C19    H90     1.024   .     S
C20    H87     1.025   .     S
C20    C84     1.415   .     S
C21    H86     1.024   .     S
C21    C83     1.414   .     S
C22    C24     1.419   .     S
C22    C32     1.421   .     S
C23    C25     1.419   .     S
C23    N72     1.392   .     S
C23    C33     1.420   .     S
C24    H34     1.016   .     S
C24    C26     1.410   .     S
C25    H35     1.016   .     S
C25    C27     1.410   .     S
C26    C28     1.410   .     S
C26    H36     1.024   .     S
C27    C29     1.410   .     S
C27    H37     1.024   .     S
C28    C50     1.408   .     S
C28    C30     1.408   .     S
C29    C31     1.409   .     S
C29    C51     1.409   .     S
C30    C32     1.407   .     S
C30    H38     1.024   .     S
C31    C33     1.407   .     S
C31    H39     1.024   .     S
C32    H40     1.015   .     S
C33    H41     1.015   .     S
C42    C44     1.410   .     S
C42    H46     1.018   .     S
C43    C45     1.408   .     S
C43    H47     1.017   .     S
C43    C73     1.420   .     S
C44    H48     1.020   .     S
C45    H49     1.018   .     S
C45    C74     1.419   .     S
C50    C52     1.412   .     S
C50    C60     1.416   .     S
C51    C53     1.415   .     S
C51    C61     1.412   .     S
C52    C54     1.395   .     S
C53    C55     1.411   .     S
C54    C56     1.415   .     S
C55    C57     1.419   .     S
C56    C58     1.419   .     S
C56    C83     1.414   .     S
C57    C84     1.414   .     S
C57    C59     1.415   .     S
C58    C60     1.411   .     S
C58    H64     1.025   .     S
C59    C61     1.394   .     S
C60    H65     1.024   .     S
C66    C68     1.400   .     S
C66    N92     1.343   .     S
C66    C75     1.429   .     S
C67    C69     1.410   .     S
C67    H70     1.020   .     S
C68    N94     1.342   .     S
C68    C76     1.411   .     S
C69    H71     1.025   .     S
N72    C73     1.397   .     S
C74    C75     1.438   .     S
N92    S93     1.683   .     S
S93    N94     1.680   .     S
N95    S96     1.685   .     S
S96    N97     1.685   .     S
N98    S99     1.685   .     S
S99    N100    1.685   .     S
