data_TAPB-TFP
_audit_creation_date              2016-12-13
_audit_creation_method            'Materials Studio'
_symmetry_space_group_name_H-M    'P1'
_symmetry_Int_Tables_number       1
_symmetry_cell_setting            triclinic
loop_
_symmetry_equiv_pos_as_xyz
  x,y,z
_cell_length_a                    17.9401
_cell_length_b                    3.5300
_cell_length_c                    19.0282
_cell_angle_alpha                 90.0000
_cell_angle_beta                  114.7657
_cell_angle_gamma                 90.0000
loop_
_atom_site_label
_atom_site_type_symbol
_atom_site_fract_x
_atom_site_fract_y
_atom_site_fract_z
_atom_site_U_iso_or_equiv
_atom_site_adp_type
_atom_site_occupancy
C1     C     0.53070   0.50000   0.60660   0.00000  Uiso   1.00
C2     C     0.54758   0.50000   0.48290   0.00000  Uiso   1.00
C3     C     0.40740   0.50000   0.47956   0.00000  Uiso   1.00
C4     C     0.44427   0.50000   0.56203   0.00000  Uiso   1.00
C5     C     0.58092   0.50000   0.56545   0.00000  Uiso   1.00
C6     C     0.46047   0.50000   0.44117   0.00000  Uiso   1.00
C7     C     0.79350   0.50000   0.07178   0.00000  Uiso   1.00
C8     C     0.78151   0.50000   0.19971   0.00000  Uiso   1.00
C9     C     0.92177   0.50000   0.19725   0.00000  Uiso   1.00
C10    C     0.88028   0.50000   0.11516   0.00000  Uiso   1.00
C11    C     0.74797   0.50000   0.11769   0.00000  Uiso   1.00
C12    C     0.86855   0.50000   0.23539   0.00000  Uiso   1.00
O13    O     0.39862   0.50000   0.59735   0.00000  Uiso   1.00
O14    O     0.65748   0.50000   0.60337   0.00000  Uiso   1.00
O15    O     0.42913   0.50000   0.36860   0.00000  Uiso   1.00
H16    H     0.91539   0.50000   0.08559   0.00000  Uiso   1.00
H17    H     0.68666   0.50000   0.09018   0.00000  Uiso   1.00
H18    H     0.89470   0.50000   0.29302   0.00000  Uiso   1.00
C19    C     0.75441   0.50000   0.98807   0.00000  Uiso   1.00
C20    C     0.73198   0.50000   0.24333   0.00000  Uiso   1.00
C21    C     0.01026   0.50000   0.23911   0.00000  Uiso   1.00
C22    C     0.66737   0.50000   0.94494   0.00000  Uiso   1.00
C23    C     0.76667   0.50000   0.32596   0.00000  Uiso   1.00
C24    C     0.06563   0.50000   0.20274   0.00000  Uiso   1.00
C25    C     0.32007   0.50000   0.44056   0.00000  Uiso   1.00
C26    C     0.60273   0.50000   0.44656   0.00000  Uiso   1.00
C27    C     0.56208   0.50000   0.68897   0.00000  Uiso   1.00
C28    C     0.05039   0.50000   0.32161   0.00000  Uiso   1.00
C29    C     0.64426   0.50000   0.20826   0.00000  Uiso   1.00
C30    C     0.79880   0.50000   0.94085   0.00000  Uiso   1.00
C31    C     0.76028   0.50000   0.85924   0.00000  Uiso   1.00
C32    C     0.59641   0.50000   0.25116   0.00000  Uiso   1.00
C33    C     0.13595   0.50000   0.36348   0.00000  Uiso   1.00
N34    N     0.27291   0.50000   0.36291   0.00000  Uiso   1.00
N35    N     0.58216   0.50000   0.36926   0.00000  Uiso   1.00
N36    N     0.64234   0.50000   0.74012   0.00000  Uiso   1.00
C37    C     0.15196   0.50000   0.24463   0.00000  Uiso   1.00
C38    C     0.71946   0.50000   0.36911   0.00000  Uiso   1.00
C39    C     0.62852   0.50000   0.86366   0.00000  Uiso   1.00
H40    H     0.62798   0.50000   0.97063   0.00000  Uiso   1.00
H41    H     0.82808   0.50000   0.35887   0.00000  Uiso   1.00
H42    H     0.04525   0.50000   0.14427   0.00000  Uiso   1.00
H43    H     0.66367   0.50000   0.48188   0.00000  Uiso   1.00
H44    H     0.52024   0.50000   0.71202   0.00000  Uiso   1.00
H45    H     0.01961   0.50000   0.35569   0.00000  Uiso   1.00
H46    H     0.61143   0.50000   0.14997   0.00000  Uiso   1.00
H47    H     0.86109   0.50000   0.96393   0.00000  Uiso   1.00
C48    C     0.67433   0.50000   0.81892   0.00000  Uiso   1.00
C49    C     0.63300   0.50000   0.33249   0.00000  Uiso   1.00
C50    C     0.18915   0.50000   0.32606   0.00000  Uiso   1.00
H51    H     0.79556   0.50000   0.82866   0.00000  Uiso   1.00
H52    H     0.53371   0.50000   0.22263   0.00000  Uiso   1.00
H53    H     0.15845   0.50000   0.42226   0.00000  Uiso   1.00
H54    H     0.18855   0.50000   0.21538   0.00000  Uiso   1.00
H55    H     0.74964   0.50000   0.42789   0.00000  Uiso   1.00
H56    H     0.56601   0.50000   0.83790   0.00000  Uiso   1.00
H57    H     0.28930   0.50000   0.47480   0.00000  Uiso   1.00
H58    H     0.30208   0.50000   0.33026   0.00000  Uiso   1.00
H59    H     0.52416   0.50000   0.33626   0.00000  Uiso   1.00
H60    H     0.68168   0.50000   0.71781   0.00000  Uiso   1.00
loop_
_geom_bond_atom_site_label_1
_geom_bond_atom_site_label_2
_geom_bond_distance
_geom_bond_site_symmetry_2
_ccdc_geom_bond_type
C1     C4      1.422   .     S
C1     C5      1.420   .     S
C1     C27     1.426   .     S
C2     C6      1.426   .     S
C2     C26     1.425   .     S
C2     C5      1.428   .     S
C3     C25     1.425   .     S
C3     C6      1.422   .     S
C3     C4      1.425   .     S
C4     O13     1.258   .     S
C5     O14     1.256   .     S
C6     O15     1.254   .     S
C7     C11     1.424   .     S
C7     C10     1.424   .     S
C8     C11     1.418   .     S
C8     C12     1.418   .     S
C8     C20     1.448   .     S
C9     C10     1.421   .     S
C9     C12     1.421   .     S
C10    H16     1.005   .     S
C11    H17     1.001   .     S
C12    H18     0.996   .     S
C19    C30     1.429   .     S
C19    C22     1.428   .     S
C20    C29     1.429   .     S
C20    C23     1.428   .     S
C21    C24     1.429   .     S
C21    C28     1.427   .     S
C22    H40     1.014   .     S
C22    C39     1.405   .     S
C23    H41     1.014   .     S
C23    C38     1.405   .     S
C24    H42     1.015   .     S
C24    C37     1.414   .     S
C25    H57     1.015   .     S
C25    N34     1.361   .     S
C26    H43     1.015   .     S
C26    N35     1.358   .     S
C27    H44     1.016   .     S
C27    N36     1.359   .     S
C28    C33     1.402   .     S
C28    H45     1.013   .     S
C29    C32     1.411   .     S
C29    H46     1.015   .     S
C30    H47     1.015   .     S
C30    C31     1.411   .     S
C31    H51     1.024   .     S
C31    C48     1.405   .     S
C32    H52     1.024   .     S
C32    C49     1.405   .     S
C33    C50     1.410   .     S
C33    H53     1.018   .     S
N34    H58     0.966   .     S
N34    C50     1.366   .     S
N35    C49     1.362   .     S
N35    H59     0.964   .     S
N36    C48     1.363   .     S
N36    H60     0.964   .     S
C37    H54     1.023   .     S
C37    C50     1.407   .     S
C38    C49     1.409   .     S
C38    H55     1.018   .     S
C39    H56     1.018   .     S
C39    C48     1.409   .     S
