data_TThPP
_audit_creation_date              2016-12-13
_audit_creation_method            'Materials Studio'
_symmetry_space_group_name_H-M    'P1'
_symmetry_Int_Tables_number       1
_symmetry_cell_setting            triclinic
loop_
_symmetry_equiv_pos_as_xyz
  x,y,z
_cell_length_a                    24.4206
_cell_length_b                    6.7645
_cell_length_c                    24.4213
_cell_angle_alpha                 90.0000
_cell_angle_beta                  81.9117
_cell_angle_gamma                 90.0000
loop_
_atom_site_label
_atom_site_type_symbol
_atom_site_fract_x
_atom_site_fract_y
_atom_site_fract_z
_atom_site_U_iso_or_equiv
_atom_site_adp_type
_atom_site_occupancy
C1     C     0.47428   0.50000   0.48993   0.00000  Uiso   1.00
C2     C     0.01007   0.50000   0.02572   0.00000  Uiso   1.00
C3     C     0.52572   0.50000   0.51007   0.00000  Uiso   1.00
C4     C     0.98993   0.50000   0.97428   0.00000  Uiso   1.00
C5     C     0.58706   0.50000   0.57476   0.00000  Uiso   1.00
C6     C     0.92524   0.50000   0.91294   0.00000  Uiso   1.00
C7     C     0.41294   0.50000   0.42524   0.00000  Uiso   1.00
C8     C     0.07476   0.50000   0.08706   0.00000  Uiso   1.00
C9     C     0.53215   0.50000   0.56603   0.00000  Uiso   1.00
C10    C     0.93397   0.50000   0.96785   0.00000  Uiso   1.00
C11    C     0.46785   0.50000   0.43397   0.00000  Uiso   1.00
C12    C     0.06603   0.50000   0.03215   0.00000  Uiso   1.00
C13    C     0.62305   0.50000   0.52534   0.00000  Uiso   1.00
C14    C     0.97465   0.50000   0.87695   0.00000  Uiso   1.00
C15    C     0.37695   0.50000   0.47465   0.00000  Uiso   1.00
C16    C     0.02535   0.50000   0.12305   0.00000  Uiso   1.00
C17    C     0.94013   0.50000   0.62066   0.00000  Uiso   1.00
C18    C     0.87934   0.50000   0.55988   0.00000  Uiso   1.00
C19    C     0.05987   0.50000   0.37934   0.00000  Uiso   1.00
C20    C     0.12066   0.50000   0.44012   0.00000  Uiso   1.00
C21    C     0.88695   0.50000   0.65040   0.00000  Uiso   1.00
C22    C     0.84959   0.50000   0.61305   0.00000  Uiso   1.00
C23    C     0.11304   0.50000   0.34959   0.00000  Uiso   1.00
C24    C     0.15041   0.50000   0.38695   0.00000  Uiso   1.00
H25    H     0.87669   0.50000   0.69243   0.00000  Uiso   1.00
H26    H     0.80756   0.50000   0.62331   0.00000  Uiso   1.00
H27    H     0.12331   0.50000   0.30757   0.00000  Uiso   1.00
H28    H     0.19243   0.50000   0.37668   0.00000  Uiso   1.00
N29    N     0.05707   0.50000   0.55708   0.00000  Uiso   1.00
N30    N     0.94293   0.50000   0.44292   0.00000  Uiso   1.00
C31    C     0.04327   0.50000   0.61284   0.00000  Uiso   1.00
C32    C     0.88716   0.50000   0.45673   0.00000  Uiso   1.00
C33    C     0.95673   0.50000   0.38716   0.00000  Uiso   1.00
C34    C     0.11284   0.50000   0.54327   0.00000  Uiso   1.00
C35    C     0.09262   0.50000   0.63556   0.00000  Uiso   1.00
C36    C     0.86444   0.50000   0.40739   0.00000  Uiso   1.00
C37    C     0.90738   0.50000   0.36444   0.00000  Uiso   1.00
C38    C     0.13556   0.50000   0.59261   0.00000  Uiso   1.00
H39    H     0.09698   0.50000   0.67659   0.00000  Uiso   1.00
H40    H     0.82341   0.50000   0.40304   0.00000  Uiso   1.00
H41    H     0.90302   0.50000   0.32341   0.00000  Uiso   1.00
H42    H     0.17659   0.50000   0.59696   0.00000  Uiso   1.00
C43    C     0.98987   0.50000   0.64407   0.00000  Uiso   1.00
C44    C     0.85593   0.50000   0.51013   0.00000  Uiso   1.00
C45    C     0.01013   0.50000   0.35592   0.00000  Uiso   1.00
C46    C     0.14407   0.50000   0.48987   0.00000  Uiso   1.00
C47    C     0.98586   0.50000   0.70237   0.00000  Uiso   1.00
C48    C     0.79764   0.50000   0.51414   0.00000  Uiso   1.00
C49    C     0.01414   0.50000   0.29763   0.00000  Uiso   1.00
C50    C     0.20236   0.50000   0.48585   0.00000  Uiso   1.00
C51    C     0.98397   0.31982   0.73179   0.00000  Uiso   1.00
C52    C     0.76822   0.68018   0.51603   0.00000  Uiso   1.00
C53    C     0.01603   0.31982   0.26821   0.00000  Uiso   1.00
C54    C     0.23178   0.68018   0.48396   0.00000  Uiso   1.00
C55    C     0.01603   0.68018   0.26821   0.00000  Uiso   1.00
C56    C     0.23178   0.31982   0.48396   0.00000  Uiso   1.00
C57    C     0.98397   0.68018   0.73179   0.00000  Uiso   1.00
C58    C     0.76822   0.31982   0.51603   0.00000  Uiso   1.00
H59    H     0.98541   0.18797   0.71110   0.00000  Uiso   1.00
H60    H     0.78891   0.81202   0.51460   0.00000  Uiso   1.00
H61    H     0.01459   0.18797   0.28890   0.00000  Uiso   1.00
H62    H     0.21108   0.81202   0.48540   0.00000  Uiso   1.00
H63    H     0.01459   0.81203   0.28890   0.00000  Uiso   1.00
H64    H     0.21108   0.18798   0.48540   0.00000  Uiso   1.00
H65    H     0.98541   0.81203   0.71110   0.00000  Uiso   1.00
H66    H     0.78891   0.18798   0.51460   0.00000  Uiso   1.00
C67    C     0.98028   0.31990   0.78982   0.00000  Uiso   1.00
C68    C     0.71018   0.68011   0.51972   0.00000  Uiso   1.00
C69    C     0.01972   0.31990   0.21017   0.00000  Uiso   1.00
C70    C     0.28982   0.68011   0.48028   0.00000  Uiso   1.00
C71    C     0.01972   0.68010   0.21017   0.00000  Uiso   1.00
C72    C     0.28982   0.31989   0.48028   0.00000  Uiso   1.00
C73    C     0.98028   0.68010   0.78982   0.00000  Uiso   1.00
C74    C     0.71018   0.31989   0.51972   0.00000  Uiso   1.00
H75    H     0.97922   0.18825   0.81058   0.00000  Uiso   1.00
H76    H     0.68943   0.81175   0.52078   0.00000  Uiso   1.00
H77    H     0.02078   0.18825   0.18942   0.00000  Uiso   1.00
H78    H     0.31057   0.81175   0.47922   0.00000  Uiso   1.00
H79    H     0.02078   0.81175   0.18942   0.00000  Uiso   1.00
H80    H     0.31057   0.18825   0.47922   0.00000  Uiso   1.00
H81    H     0.97922   0.81175   0.81058   0.00000  Uiso   1.00
H82    H     0.68943   0.18825   0.52078   0.00000  Uiso   1.00
C83    C     0.97831   0.50000   0.81920   0.00000  Uiso   1.00
C84    C     0.68080   0.50000   0.52169   0.00000  Uiso   1.00
C85    C     0.02169   0.50000   0.18079   0.00000  Uiso   1.00
C86    C     0.31920   0.50000   0.47831   0.00000  Uiso   1.00
H87    H     0.59943   0.50000   0.61305   0.00000  Uiso   1.00
H88    H     0.49993   0.50000   0.59767   0.00000  Uiso   1.00
H89    H     0.88695   0.50000   0.90057   0.00000  Uiso   1.00
H90    H     0.90233   0.50000   0.00007   0.00000  Uiso   1.00
H91    H     0.40057   0.50000   0.38695   0.00000  Uiso   1.00
H92    H     0.50006   0.50000   0.40233   0.00000  Uiso   1.00
H93    H     0.11305   0.50000   0.09942   0.00000  Uiso   1.00
H94    H     0.09767   0.50000   0.99993   0.00000  Uiso   1.00
S95    S     0.41055   0.50000   0.53259   0.00000  Uiso   1.00
S96    S     0.96741   0.50000   0.08945   0.00000  Uiso   1.00
S97    S     0.58945   0.50000   0.46741   0.00000  Uiso   1.00
S98    S     0.03259   0.50000   0.91055   0.00000  Uiso   1.00
N99    N     0.93327   0.50000   0.56673   0.00000  Uiso   1.00
N100   N     0.06673   0.50000   0.43326   0.00000  Uiso   1.00
H101   H     0.96357   0.50000   0.53642   0.00000  Uiso   1.00
H102   H     0.03643   0.50000   0.46358   0.00000  Uiso   1.00
loop_
_geom_bond_atom_site_label_1
_geom_bond_atom_site_label_2
_geom_bond_distance
_geom_bond_site_symmetry_2
_ccdc_geom_bond_type
C1     C11     1.397   .     S
C1     S95     1.747   .     S
C1     C3      1.412   .     S
C2     C12     1.397   .     S
C3     C9      1.397   .     S
C3     S97     1.747   .     S
C4     C10     1.397   .     S
C5     C9      1.387   .     S
C5     C13     1.389   .     S
C5     H87     1.022   .     S
C6     C10     1.387   .     S
C6     H89     1.022   .     S
C6     C14     1.389   .     S
C7     C15     1.389   .     S
C7     C11     1.387   .     S
C7     H91     1.022   .     S
C8     C12     1.387   .     S
C8     C16     1.389   .     S
C8     H93     1.022   .     S
C9     H88     1.022   .     S
C11    H92     1.022   .     S
C13    C84     1.401   .     S
C13    S97     1.732   .     S
C14    C83     1.401   .     S
C15    C86     1.401   .     S
C15    S95     1.732   .     S
C16    C85     1.401   .     S
C17    C21     1.396   .     S
C17    C43     1.414   .     S
C17    N99     1.351   .     S
C18    C44     1.414   .     S
C18    N99     1.351   .     S
C18    C22     1.396   .     S
C19    C23     1.396   .     S
C19    C45     1.414   .     S
C19    N100    1.351   .     S
C20    N100    1.351   .     S
C20    C46     1.414   .     S
C20    C24     1.396   .     S
C21    C22     1.378   .     S
C21    H25     1.022   .     S
C22    H26     1.022   .     S
C23    H27     1.022   .     S
C23    C24     1.378   .     S
C24    H28     1.022   .     S
N29    C34     1.356   .     S
N29    C31     1.356   .     S
N30    C32     1.356   .     S
N30    C33     1.356   .     S
C31    C35     1.396   .     S
C32    C36     1.396   .     S
C32    C44     1.415   .     S
C33    C37     1.396   .     S
C34    C38     1.396   .     S
C34    C46     1.415   .     S
C35    H39     1.022   .     S
C35    C38     1.375   .     S
C36    H40     1.022   .     S
C36    C37     1.375   .     S
C37    H41     1.022   .     S
C38    H42     1.022   .     S
C43    C47     1.413   .     S
C44    C48     1.413   .     S
C45    C49     1.413   .     S
C46    C50     1.413   .     S
C47    C57     1.412   .     S
C47    C51     1.412   .     S
C48    C52     1.412   .     S
C48    C58     1.412   .     S
C49    C55     1.412   .     S
C49    C53     1.412   .     S
C50    C54     1.412   .     S
C50    C56     1.412   .     S
C51    H59     1.023   .     S
C51    C67     1.407   .     S
C52    C68     1.407   .     S
C52    H60     1.023   .     S
C53    H61     1.023   .     S
C53    C69     1.407   .     S
C54    C70     1.407   .     S
C54    H62     1.023   .     S
C55    C71     1.407   .     S
C55    H63     1.023   .     S
C56    C72     1.407   .     S
C56    H64     1.023   .     S
C57    C73     1.407   .     S
C57    H65     1.023   .     S
C58    H66     1.023   .     S
C58    C74     1.407   .     S
C67    C83     1.411   .     S
C67    H75     1.023   .     S
C68    C84     1.411   .     S
C68    H76     1.023   .     S
C69    C85     1.411   .     S
C69    H77     1.023   .     S
C70    C86     1.411   .     S
C70    H78     1.023   .     S
C71    H79     1.023   .     S
C71    C85     1.411   .     S
C72    H80     1.023   .     S
C72    C86     1.411   .     S
C73    H81     1.023   .     S
C73    C83     1.411   .     S
C74    H82     1.023   .     S
C74    C84     1.411   .     S
N99    H101    0.970   .     S
N100   H102    0.970   .     S
